54
A
Cs 0.000000 0.000000 0.000000
Cl -2.055000 2.055000 -2.055000
Cs 0.000000 0.000000 4.110000
Cl -2.055000 2.055000 2.055000
Cs 0.000000 0.000000 8.220000
Cl -2.055000 2.055000 6.165000
Cs -4.110000 4.110000 -4.110000
Cl -6.165000 6.165000 -6.165000
Cs -4.110000 4.110000 0.000000
Cl -6.165000 6.165000 -2.055000
Cs -4.110000 4.110000 4.110000
Cl -6.165000 6.165000 2.055000
Cs -8.220000 8.220000 -8.220000
Cl -10.275000 10.275000 -10.275000
Cs -8.220000 8.220000 -4.110000
Cl -10.275000 10.275000 -6.165000
Cs -8.220000 8.220000 0.000000
Cl -10.275000 10.275000 -2.055000
Cs 4.110000 0.000000 -0.000000
Cl 2.055000 2.055000 -2.055000
Cs 4.110000 0.000000 4.110000
Cl 2.055000 2.055000 2.055000
Cs 4.110000 0.000000 8.220000
Cl 2.055000 2.055000 6.165000
Cs 0.000000 4.110000 -4.110000
Cl -2.055000 6.165000 -6.165000
Cs 0.000000 4.110000 0.000000
Cl -2.055000 6.165000 -2.055000
Cs 0.000000 4.110000 4.110000
Cl -2.055000 6.165000 2.055000
Cs -4.110000 8.220000 -8.220000
Cl -6.165000 10.275000 -10.275000
Cs -4.110000 8.220000 -4.110000
Cl -6.165000 10.275000 -6.165000
Cs -4.110000 8.220000 0.000000
Cl -6.165000 10.275000 -2.055000
Cs 8.220000 0.000000 -0.000000
Cl 6.165000 2.055000 -2.055000
Cs 8.220000 0.000000 4.110000
Cl 6.165000 2.055000 2.055000
Cs 8.220000 0.000000 8.220000
Cl 6.165000 2.055000 6.165000
Cs 4.110000 4.110000 -4.110000
Cl 2.055000 6.165000 -6.165000
Cs 4.110000 4.110000 -0.000000
Cl 2.055000 6.165000 -2.055000
Cs 4.110000 4.110000 4.110000
Cl 2.055000 6.165000 2.055000
Cs 0.000000 8.220000 -8.220000
Cl -2.055000 10.275000 -10.275000
Cs 0.000000 8.220000 -4.110000
Cl -2.055000 10.275000 -6.165000
Cs 0.000000 8.220000 0.000000
Cl -2.055000 10.275000 -2.055000
