54
A
Cs -2.245200 3.073047 -3.708277
Cl -0.748400 1.024349 -1.236092
Cs -2.245200 3.073047 1.236092
Cl -0.748400 1.024349 3.708277
Cs -2.245200 3.073047 6.180461
Cl -0.748400 1.024349 8.652645
Cs -5.238800 7.170443 -8.652645
Cl -3.742000 5.121745 -6.180461
Cs -5.238800 7.170443 -3.708277
Cl -3.742000 5.121745 -1.236092
Cs -5.238800 7.170443 1.236092
Cl -3.742000 5.121745 3.708277
Cs -8.232400 11.267839 -13.597014
Cl -6.735600 9.219141 -11.124830
Cs -8.232400 11.267839 -8.652645
Cl -6.735600 9.219141 -6.180461
Cs -8.232400 11.267839 -3.708277
Cl -6.735600 9.219141 -1.236092
Cs 2.080800 3.073047 -6.344861
Cl 3.577600 1.024349 -3.872677
Cs 2.080800 3.073047 -1.400492
Cl 3.577600 1.024349 1.071692
Cs 2.080800 3.073047 3.543877
Cl 3.577600 1.024349 6.016061
Cs -0.912800 7.170443 -11.289230
Cl 0.584000 5.121745 -8.817045
Cs -0.912800 7.170443 -6.344861
Cl 0.584000 5.121745 -3.872677
Cs -0.912800 7.170443 -1.400492
Cl 0.584000 5.121745 1.071692
Cs -3.906400 11.267839 -16.233599
Cl -2.409600 9.219141 -13.761414
Cs -3.906400 11.267839 -11.289230
Cl -2.409600 9.219141 -8.817045
Cs -3.906400 11.267839 -6.344861
Cl -2.409600 9.219141 -3.872677
Cs 6.406800 3.073047 -8.981445
Cl 7.903600 1.024349 -6.509261
Cs 6.406800 3.073047 -4.037077
Cl 7.903600 1.024349 -1.564892
Cs 6.406800 3.073047 0.907292
Cl 7.903600 1.024349 3.379477
Cs 3.413200 7.170443 -13.925814
Cl 4.910000 5.121745 -11.453630
Cs 3.413200 7.170443 -8.981445
Cl 4.910000 5.121745 -6.509261
Cs 3.413200 7.170443 -4.037077
Cl 4.910000 5.121745 -1.564892
Cs 0.419600 11.267839 -18.870183
Cl 1.916400 9.219141 -16.397999
Cs 0.419600 11.267839 -13.925814
Cl 1.916400 9.219141 -11.453630
Cs 0.419600 11.267839 -8.981445
Cl 1.916400 9.219141 -6.509261
