54
A
Cs -3.027893 3.081884 -3.123312
Cl -1.009298 1.027295 -1.041104
Cs -3.027893 3.081884 1.041104
Cl -1.009298 1.027295 3.123312
Cs -3.027893 3.081884 5.205519
Cl -1.009298 1.027295 7.287727
Cs -7.065085 7.191062 -7.287727
Cl -5.046489 5.136473 -5.205519
Cs -7.065085 7.191062 -3.123312
Cl -5.046489 5.136473 -1.041104
Cs -7.065085 7.191062 1.041104
Cl -5.046489 5.136473 3.123312
Cs -11.102276 11.300240 -11.452142
Cl -9.083680 9.245651 -9.369935
Cs -11.102276 11.300240 -7.287727
Cl -9.083680 9.245651 -5.205519
Cs -11.102276 11.300240 -3.123312
Cl -9.083680 9.245651 -1.041104
Cs 1.096193 3.081884 -2.972804
Cl 3.114789 1.027295 -0.890596
Cs 1.096193 3.081884 1.191612
Cl 3.114789 1.027295 3.273819
Cs 1.096193 3.081884 5.356027
Cl 3.114789 1.027295 7.438235
Cs -2.940998 7.191062 -7.137219
Cl -0.922402 5.136473 -5.055012
Cs -2.940998 7.191062 -2.972804
Cl -0.922402 5.136473 -0.890596
Cs -2.940998 7.191062 1.191612
Cl -0.922402 5.136473 3.273819
Cs -6.978189 11.300240 -11.301635
Cl -4.959593 9.245651 -9.219427
Cs -6.978189 11.300240 -7.137219
Cl -4.959593 9.245651 -5.055012
Cs -6.978189 11.300240 -2.972804
Cl -4.959593 9.245651 -0.890596
Cs 5.220280 3.081884 -2.822296
Cl 7.238876 1.027295 -0.740088
Cs 5.220280 3.081884 1.342119
Cl 7.238876 1.027295 3.424327
Cs 5.220280 3.081884 5.506535
Cl 7.238876 1.027295 7.588742
Cs 1.183089 7.191062 -6.986712
Cl 3.201685 5.136473 -4.904504
Cs 1.183089 7.191062 -2.822296
Cl 3.201685 5.136473 -0.740088
Cs 1.183089 7.191062 1.342119
Cl 3.201685 5.136473 3.424327
Cs -2.854102 11.300240 -11.151127
Cl -0.835507 9.245651 -9.068919
Cs -2.854102 11.300240 -6.986712
Cl -0.835507 9.245651 -4.904504
Cs -2.854102 11.300240 -2.822296
Cl -0.835507 9.245651 -0.740088
