54
A
Cs -2.591041 3.076952 -3.449804
Cl -0.863680 1.025651 -1.149935
Cs -2.591041 3.076952 1.149935
Cl -0.863680 1.025651 3.449804
Cs -2.591041 3.076952 5.749673
Cl -0.863680 1.025651 8.049542
Cs -6.045763 7.179554 -8.049542
Cl -4.318402 5.128253 -5.749673
Cs -6.045763 7.179554 -3.449804
Cl -4.318402 5.128253 -1.149935
Cs -6.045763 7.179554 1.149935
Cl -4.318402 5.128253 3.449804
Cs -9.500485 11.282156 -12.649280
Cl -7.773124 9.230855 -10.349411
Cs -9.500485 11.282156 -8.049542
Cl -7.773124 9.230855 -5.749673
Cs -9.500485 11.282156 -3.449804
Cl -7.773124 9.230855 -1.149935
Cs 1.645741 3.076952 -6.694973
Cl 3.373102 1.025651 -4.395104
Cs 1.645741 3.076952 -2.095235
Cl 3.373102 1.025651 0.204635
Cs 1.645741 3.076952 2.504504
Cl 3.373102 1.025651 4.804373
Cs -1.808980 7.179554 -11.294711
Cl -0.081620 5.128253 -8.994842
Cs -1.808980 7.179554 -6.694973
Cl -0.081620 5.128253 -4.395104
Cs -1.808980 7.179554 -2.095235
Cl -0.081620 5.128253 0.204635
Cs -5.263702 11.282156 -15.894449
Cl -3.536341 9.230855 -13.594580
Cs -5.263702 11.282156 -11.294711
Cl -3.536341 9.230855 -8.994842
Cs -5.263702 11.282156 -6.694973
Cl -3.536341 9.230855 -4.395104
Cs 5.882524 3.076952 -9.940142
Cl 7.609885 1.025651 -7.640273
Cs 5.882524 3.076952 -5.340404
Cl 7.609885 1.025651 -3.040535
Cs 5.882524 3.076952 -0.740665
Cl 7.609885 1.025651 1.559204
Cs 2.427802 7.179554 -14.539880
Cl 4.155163 5.128253 -12.240011
Cs 2.427802 7.179554 -9.940142
Cl 4.155163 5.128253 -7.640273
Cs 2.427802 7.179554 -5.340404
Cl 4.155163 5.128253 -3.040535
Cs -1.026920 11.282156 -19.139618
Cl 0.700441 9.230855 -16.839749
Cs -1.026920 11.282156 -14.539880
Cl 0.700441 9.230855 -12.240011
Cs -1.026920 11.282156 -9.940142
Cl 0.700441 9.230855 -7.640273
