54
A
Cs -2.217897 3.072739 -3.728682
Cl -0.739299 1.024246 -1.242894
Cs -2.217897 3.072739 1.242894
Cl -0.739299 1.024246 3.728682
Cs -2.217897 3.072739 6.214471
Cl -0.739299 1.024246 8.700259
Cs -5.175092 7.169724 -8.700259
Cl -3.696494 5.121231 -6.214471
Cs -5.175092 7.169724 -3.728682
Cl -3.696494 5.121231 -1.242894
Cs -5.175092 7.169724 1.242894
Cl -3.696494 5.121231 3.728682
Cs -8.132288 11.266709 -13.671835
Cl -6.653690 9.218217 -11.186047
Cs -8.132288 11.266709 -8.700259
Cl -6.653690 9.218217 -6.214471
Cs -8.132288 11.266709 -3.728682
Cl -6.653690 9.218217 -1.242894
Cs 2.115147 3.072739 -6.317221
Cl 3.593744 1.024246 -3.831432
Cs 2.115147 3.072739 -1.345644
Cl 3.593744 1.024246 1.140144
Cs 2.115147 3.072739 3.625932
Cl 3.593744 1.024246 6.111721
Cs -0.842049 7.169724 -11.288797
Cl 0.636549 5.121231 -8.803009
Cs -0.842049 7.169724 -6.317221
Cl 0.636549 5.121231 -3.831432
Cs -0.842049 7.169724 -1.345644
Cl 0.636549 5.121231 1.140144
Cs -3.799244 11.266709 -16.260374
Cl -2.320647 9.218217 -13.774585
Cs -3.799244 11.266709 -11.288797
Cl -2.320647 9.218217 -8.803009
Cs -3.799244 11.266709 -6.317221
Cl -2.320647 9.218217 -3.831432
Cs 6.448190 3.072739 -8.905759
Cl 7.926788 1.024246 -6.419971
Cs 6.448190 3.072739 -3.934182
Cl 7.926788 1.024246 -1.448394
Cs 6.448190 3.072739 1.037394
Cl 7.926788 1.024246 3.523182
Cs 3.490994 7.169724 -13.877335
Cl 4.969592 5.121231 -11.391547
Cs 3.490994 7.169724 -8.905759
Cl 4.969592 5.121231 -6.419971
Cs 3.490994 7.169724 -3.934182
Cl 4.969592 5.121231 -1.448394
Cs 0.533799 11.266709 -18.848912
Cl 2.012397 9.218217 -16.363124
Cs 0.533799 11.266709 -13.877335
Cl 2.012397 9.218217 -11.391547
Cs 0.533799 11.266709 -8.905759
Cl 2.012397 9.218217 -6.419971
