54
A
Cs -2.854973 3.079931 -3.252548
Cl -0.951658 1.026644 -1.084183
Cs -2.854973 3.079931 1.084183
Cl -0.951658 1.026644 3.252548
Cs -2.854973 3.079931 5.420913
Cl -0.951658 1.026644 7.589279
Cs -6.661603 7.186506 -7.589279
Cl -4.758288 5.133219 -5.420913
Cs -6.661603 7.186506 -3.252548
Cl -4.758288 5.133219 -1.084183
Cs -6.661603 7.186506 1.084183
Cl -4.758288 5.133219 3.252548
Cs -10.468234 11.293081 -11.926009
Cl -8.564918 9.239794 -9.757644
Cs -10.468234 11.293081 -7.589279
Cl -8.564918 9.239794 -5.420913
Cs -10.468234 11.293081 -3.252548
Cl -8.564918 9.239794 -1.084183
Cs 1.313723 3.079931 -2.625433
Cl 3.217038 1.026644 -0.457067
Cs 1.313723 3.079931 1.711298
Cl 3.217038 1.026644 3.879663
Cs 1.313723 3.079931 6.048029
Cl 3.217038 1.026644 8.216394
Cs -2.492908 7.186506 -6.962163
Cl -0.589592 5.133219 -4.793798
Cs -2.492908 7.186506 -2.625433
Cl -0.589592 5.133219 -0.457067
Cs -2.492908 7.186506 1.711298
Cl -0.589592 5.133219 3.879663
Cs -6.299538 11.293081 -11.298894
Cl -4.396223 9.239794 -9.130529
Cs -6.299538 11.293081 -6.962163
Cl -4.396223 9.239794 -4.793798
Cs -6.299538 11.293081 -2.625433
Cl -4.396223 9.239794 -0.457067
Cs 5.482418 3.079931 -1.998317
Cl 7.385734 1.026644 0.170048
Cs 5.482418 3.079931 2.338413
Cl 7.385734 1.026644 4.506779
Cs 5.482418 3.079931 6.675144
Cl 7.385734 1.026644 8.843509
Cs 1.675788 7.186506 -6.335048
Cl 3.579103 5.133219 -4.166683
Cs 1.675788 7.186506 -1.998317
Cl 3.579103 5.133219 0.170048
Cs 1.675788 7.186506 2.338413
Cl 3.579103 5.133219 4.506779
Cs -2.130842 11.293081 -10.671779
Cl -0.227527 9.239794 -8.503413
Cs -2.130842 11.293081 -6.335048
Cl -0.227527 9.239794 -4.166683
Cs -2.130842 11.293081 -1.998317
Cl -0.227527 9.239794 0.170048
