54
A
Cs -2.718456 3.078390 -3.354577
Cl -0.906152 1.026130 -1.118192
Cs -2.718456 3.078390 1.118192
Cl -0.906152 1.026130 3.354577
Cs -2.718456 3.078390 5.590961
Cl -0.906152 1.026130 7.827346
Cs -6.343065 7.182910 -7.827346
Cl -4.530761 5.130650 -5.590961
Cs -6.343065 7.182910 -3.354577
Cl -4.530761 5.130650 -1.118192
Cs -6.343065 7.182910 1.118192
Cl -4.530761 5.130650 3.354577
Cs -9.967674 11.287430 -12.300115
Cl -8.155369 9.235170 -10.063730
Cs -9.967674 11.287430 -7.827346
Cl -8.155369 9.235170 -5.590961
Cs -9.967674 11.287430 -3.354577
Cl -8.155369 9.235170 -1.118192
Cs 1.485456 3.078390 -2.351192
Cl 3.297761 1.026130 -0.114808
Cs 1.485456 3.078390 2.121577
Cl 3.297761 1.026130 4.357961
Cs 1.485456 3.078390 6.594346
Cl 3.297761 1.026130 8.830730
Cs -2.139152 7.182910 -6.823961
Cl -0.326848 5.130650 -4.587577
Cs -2.139152 7.182910 -2.351192
Cl -0.326848 5.130650 -0.114808
Cs -2.139152 7.182910 2.121577
Cl -0.326848 5.130650 4.357961
Cs -5.763761 11.287430 -11.296730
Cl -3.951456 9.235170 -9.060346
Cs -5.763761 11.287430 -6.823961
Cl -3.951456 9.235170 -4.587577
Cs -5.763761 11.287430 -2.351192
Cl -3.951456 9.235170 -0.114808
Cs 5.689369 3.078390 -1.347808
Cl 7.501674 1.026130 0.888577
Cs 5.689369 3.078390 3.124961
Cl 7.501674 1.026130 5.361346
Cs 5.689369 3.078390 7.597730
Cl 7.501674 1.026130 9.834115
Cs 2.064761 7.182910 -5.820577
Cl 3.877065 5.130650 -3.584192
Cs 2.064761 7.182910 -1.347808
Cl 3.877065 5.130650 0.888577
Cs 2.064761 7.182910 3.124961
Cl 3.877065 5.130650 5.361346
Cs -1.559848 11.287430 -10.293346
Cl 0.252456 9.235170 -8.056961
Cs -1.559848 11.287430 -5.820577
Cl 0.252456 9.235170 -3.584192
Cs -1.559848 11.287430 -1.347808
Cl 0.252456 9.235170 0.888577
