54
A
Cs -2.709355 3.078287 -3.361379
Cl -0.903118 1.026096 -1.120460
Cs -2.709355 3.078287 1.120460
Cl -0.903118 1.026096 3.361379
Cs -2.709355 3.078287 5.602298
Cl -0.903118 1.026096 7.843217
Cs -6.321829 7.182670 -7.843217
Cl -4.515592 5.130479 -5.602298
Cs -6.321829 7.182670 -3.361379
Cl -4.515592 5.130479 -1.120460
Cs -6.321829 7.182670 1.120460
Cl -4.515592 5.130479 3.361379
Cs -9.934303 11.287053 -12.325055
Cl -8.128066 9.234862 -10.084136
Cs -9.934303 11.287053 -7.843217
Cl -8.128066 9.234862 -5.602298
Cs -9.934303 11.287053 -3.361379
Cl -8.128066 9.234862 -1.120460
Cs 1.496905 3.078287 -6.814748
Cl 3.303142 1.026096 -4.573829
Cs 1.496905 3.078287 -2.332910
Cl 3.303142 1.026096 -0.091990
Cs 1.496905 3.078287 2.148929
Cl 3.303142 1.026096 4.389848
Cs -2.115568 7.182670 -11.296586
Cl -0.309332 5.130479 -9.055667
Cs -2.115568 7.182670 -6.814748
Cl -0.309332 5.130479 -4.573829
Cs -2.115568 7.182670 -2.332910
Cl -0.309332 5.130479 -0.091990
Cs -5.728042 11.287053 -15.778424
Cl -3.921805 9.234862 -13.537505
Cs -5.728042 11.287053 -11.296586
Cl -3.921805 9.234862 -9.055667
Cs -5.728042 11.287053 -6.814748
Cl -3.921805 9.234862 -4.573829
Cs 5.703166 3.078287 -10.268117
Cl 7.509403 1.026096 -8.027198
Cs 5.703166 3.078287 -5.786279
Cl 7.509403 1.026096 -3.545360
Cs 5.703166 3.078287 -1.304440
Cl 7.509403 1.026096 0.936479
Cs 2.090692 7.182670 -14.749955
Cl 3.896929 5.130479 -12.509036
Cs 2.090692 7.182670 -10.268117
Cl 3.896929 5.130479 -8.027198
Cs 2.090692 7.182670 -5.786279
Cl 3.896929 5.130479 -3.545360
Cs -1.521782 11.287053 -19.231794
Cl 0.284455 9.234862 -16.990874
Cs -1.521782 11.287053 -14.749955
Cl 0.284455 9.234862 -12.509036
Cs -1.521782 11.287053 -10.268117
Cl 0.284455 9.234862 -8.027198
