54
A
Cs -2.609243 3.077157 -3.436200
Cl -0.869748 1.025719 -1.145400
Cs -2.609243 3.077157 1.145400
Cl -0.869748 1.025719 3.436200
Cs -2.609243 3.077157 5.727000
Cl -0.869748 1.025719 8.017800
Cs -6.088235 7.180033 -8.017800
Cl -4.348739 5.128595 -5.727000
Cs -6.088235 7.180033 -3.436200
Cl -4.348739 5.128595 -1.145400
Cs -6.088235 7.180033 1.145400
Cl -4.348739 5.128595 3.436200
Cs -9.567226 11.282909 -12.599399
Cl -7.827730 9.231471 -10.308599
Cs -9.567226 11.282909 -8.017800
Cl -7.827730 9.231471 -5.727000
Cs -9.567226 11.282909 -3.436200
Cl -7.827730 9.231471 -1.145400
Cs 1.622843 3.077157 -6.713400
Cl 3.362339 1.025719 -4.422600
Cs 1.622843 3.077157 -2.131800
Cl 3.362339 1.025719 0.159000
Cs 1.622843 3.077157 2.449800
Cl 3.362339 1.025719 4.740600
Cs -1.856148 7.180033 -11.294999
Cl -0.116652 5.128595 -9.004200
Cs -1.856148 7.180033 -6.713400
Cl -0.116652 5.128595 -4.422600
Cs -1.856148 7.180033 -2.131800
Cl -0.116652 5.128595 0.159000
Cs -5.335139 11.282909 -15.876599
Cl -3.595643 9.231471 -13.585799
Cs -5.335139 11.282909 -11.294999
Cl -3.595643 9.231471 -9.004200
Cs -5.335139 11.282909 -6.713400
Cl -3.595643 9.231471 -4.422600
Cs 5.854930 3.077157 -9.990600
Cl 7.594426 1.025719 -7.699800
Cs 5.854930 3.077157 -5.409000
Cl 7.594426 1.025719 -3.118200
Cs 5.854930 3.077157 -0.827400
Cl 7.594426 1.025719 1.463400
Cs 2.375939 7.180033 -14.572199
Cl 4.115435 5.128595 -12.281399
Cs 2.375939 7.180033 -9.990600
Cl 4.115435 5.128595 -7.699800
Cs 2.375939 7.180033 -5.409000
Cl 4.115435 5.128595 -3.118200
Cs -1.103052 11.282909 -19.153799
Cl 0.636443 9.231471 -16.862999
Cs -1.103052 11.282909 -14.572199
Cl 0.636443 9.231471 -12.281399
Cs -1.103052 11.282909 -9.990600
Cl 0.636443 9.231471 -7.699800
