54
A
Cs -2.700254 3.078185 -3.368181
Cl -0.900085 1.026062 -1.122727
Cs -2.700254 3.078185 1.122727
Cl -0.900085 1.026062 3.368181
Cs -2.700254 3.078185 5.613634
Cl -0.900085 1.026062 7.859088
Cs -6.300593 7.182431 -7.859088
Cl -4.500424 5.130308 -5.613634
Cs -6.300593 7.182431 -3.368181
Cl -4.500424 5.130308 -1.122727
Cs -6.300593 7.182431 1.122727
Cl -4.500424 5.130308 3.368181
Cs -9.900932 11.286677 -12.349996
Cl -8.100763 9.234554 -10.104542
Cs -9.900932 11.286677 -7.859088
Cl -8.100763 9.234554 -5.613634
Cs -9.900932 11.286677 -3.368181
Cl -8.100763 9.234554 -1.122727
Cs 1.508354 3.078185 -6.805534
Cl 3.308524 1.026062 -4.560081
Cs 1.508354 3.078185 -2.314627
Cl 3.308524 1.026062 -0.069173
Cs 1.508354 3.078185 2.176281
Cl 3.308524 1.026062 4.421734
Cs -2.091985 7.182431 -11.296442
Cl -0.291815 5.130308 -9.050988
Cs -2.091985 7.182431 -6.805534
Cl -0.291815 5.130308 -4.560081
Cs -2.091985 7.182431 -2.314627
Cl -0.291815 5.130308 -0.069173
Cs -5.692324 11.286677 -15.787349
Cl -3.892154 9.234554 -13.541896
Cs -5.692324 11.286677 -11.296442
Cl -3.892154 9.234554 -9.050988
Cs -5.692324 11.286677 -6.805534
Cl -3.892154 9.234554 -4.560081
Cs 5.716963 3.078185 -10.242888
Cl 7.517132 1.026062 -7.997434
Cs 5.716963 3.078185 -5.751981
Cl 7.517132 1.026062 -3.506527
Cs 5.716963 3.078185 -1.261073
Cl 7.517132 1.026062 0.984381
Cs 2.116624 7.182431 -14.733796
Cl 3.916793 5.130308 -12.488342
Cs 2.116624 7.182431 -10.242888
Cl 3.916793 5.130308 -7.997434
Cs 2.116624 7.182431 -5.751981
Cl 3.916793 5.130308 -3.506527
Cs -1.483715 11.286677 -19.224703
Cl 0.316454 9.234554 -16.979249
Cs -1.483715 11.286677 -14.733796
Cl 0.316454 9.234554 -12.488342
Cs -1.483715 11.286677 -10.242888
Cl 0.316454 9.234554 -7.997434
