54
A
Cs -2.918680 3.080651 -3.204935
Cl -0.972893 1.026884 -1.068312
Cs -2.918680 3.080651 1.068312
Cl -0.972893 1.026884 3.204935
Cs -2.918680 3.080651 5.341558
Cl -0.972893 1.026884 7.478181
Cs -6.810254 7.188185 -7.478181
Cl -4.864467 5.134418 -5.341558
Cs -6.810254 7.188185 -3.204935
Cl -4.864467 5.134418 -1.068312
Cs -6.810254 7.188185 1.068312
Cl -4.864467 5.134418 3.204935
Cs -10.701828 11.295719 -11.751427
Cl -8.756041 9.241952 -9.614804
Cs -10.701828 11.295719 -7.478181
Cl -8.756041 9.241952 -5.341558
Cs -10.701828 11.295719 -3.204935
Cl -8.756041 9.241952 -1.068312
Cs 1.233580 3.080651 -7.026658
Cl 3.179367 1.026884 -4.890035
Cs 1.233580 3.080651 -2.753412
Cl 3.179367 1.026884 -0.616788
Cs 1.233580 3.080651 1.519835
Cl 3.179367 1.026884 3.656458
Cs -2.657993 7.188185 -11.299904
Cl -0.712207 5.134418 -9.163281
Cs -2.657993 7.188185 -7.026658
Cl -0.712207 5.134418 -4.890035
Cs -2.657993 7.188185 -2.753412
Cl -0.712207 5.134418 -0.616788
Cs -6.549567 11.295719 -15.573150
Cl -4.603780 9.241952 -13.436527
Cs -6.549567 11.295719 -11.299904
Cl -4.603780 9.241952 -9.163281
Cs -6.549567 11.295719 -7.026658
Cl -4.603780 9.241952 -4.890035
Cs 5.385841 3.080651 -10.848381
Cl 7.331628 1.026884 -8.711758
Cs 5.385841 3.080651 -6.575135
Cl 7.331628 1.026884 -4.438512
Cs 5.385841 3.080651 -2.301888
Cl 7.331628 1.026884 -0.165265
Cs 1.494267 7.188185 -15.121627
Cl 3.440054 5.134418 -12.985004
Cs 1.494267 7.188185 -10.848381
Cl 3.440054 5.134418 -8.711758
Cs 1.494267 7.188185 -6.575135
Cl 3.440054 5.134418 -4.438512
Cs -2.397307 11.295719 -19.394873
Cl -0.451520 9.241952 -17.258250
Cs -2.397307 11.295719 -15.121627
Cl -0.451520 9.241952 -12.985004
Cs -2.397307 11.295719 -10.848381
Cl -0.451520 9.241952 -8.711758
