54
A
Cs -2.409019 3.074897 -3.585842
Cl -0.803006 1.024966 -1.195281
Cs -2.409019 3.074897 1.195281
Cl -0.803006 1.024966 3.585842
Cs -2.409019 3.074897 5.976403
Cl -0.803006 1.024966 8.366965
Cs -5.621045 7.174759 -8.366965
Cl -4.015032 5.124828 -5.976403
Cs -5.621045 7.174759 -3.585842
Cl -4.015032 5.124828 -1.195281
Cs -5.621045 7.174759 1.195281
Cl -4.015032 5.124828 3.585842
Cs -8.833071 11.274621 -13.148088
Cl -7.227058 9.224690 -10.757526
Cs -8.833071 11.274621 -8.366965
Cl -7.227058 9.224690 -5.976403
Cs -8.833071 11.274621 -3.585842
Cl -7.227058 9.224690 -1.195281
Cs 1.874719 3.074897 -6.510703
Cl 3.480732 1.024966 -4.120142
Cs 1.874719 3.074897 -1.729581
Cl 3.480732 1.024966 0.660981
Cs 1.874719 3.074897 3.051542
Cl 3.480732 1.024966 5.442103
Cs -1.337306 7.174759 -11.291826
Cl 0.268706 5.124828 -8.901265
Cs -1.337306 7.174759 -6.510703
Cl 0.268706 5.124828 -4.120142
Cs -1.337306 7.174759 -1.729581
Cl 0.268706 5.124828 0.660981
Cs -4.549332 11.274621 -16.072949
Cl -2.943319 9.224690 -13.682388
Cs -4.549332 11.274621 -11.291826
Cl -2.943319 9.224690 -8.901265
Cs -4.549332 11.274621 -6.510703
Cl -2.943319 9.224690 -4.120142
Cs 6.158458 3.074897 -9.435565
Cl 7.764471 1.024966 -7.045003
Cs 6.158458 3.074897 -4.654442
Cl 7.764471 1.024966 -2.263881
Cs 6.158458 3.074897 0.126681
Cl 7.764471 1.024966 2.517242
Cs 2.946432 7.174759 -14.216688
Cl 4.552445 5.124828 -11.826126
Cs 2.946432 7.174759 -9.435565
Cl 4.552445 5.124828 -7.045003
Cs 2.946432 7.174759 -4.654442
Cl 4.552445 5.124828 -2.263881
Cs -0.265594 11.274621 -18.997810
Cl 1.340419 9.224690 -16.607249
Cs -0.265594 11.274621 -14.216688
Cl 1.340419 9.224690 -11.826126
Cs -0.265594 11.274621 -9.435565
Cl 1.340419 9.224690 -7.045003
