54
A
Cs -2.982388 3.081370 -3.157321
Cl -0.994129 1.027123 -1.052440
Cs -2.982388 3.081370 1.052440
Cl -0.994129 1.027123 3.157321
Cs -2.982388 3.081370 5.262202
Cl -0.994129 1.027123 7.367083
Cs -6.958905 7.189863 -7.367083
Cl -4.970647 5.135616 -5.262202
Cs -6.958905 7.189863 -3.157321
Cl -4.970647 5.135616 -1.052440
Cs -6.958905 7.189863 1.052440
Cl -4.970647 5.135616 3.157321
Cs -10.935423 11.298356 -11.576844
Cl -8.947164 9.244109 -9.471963
Cs -10.935423 11.298356 -7.367083
Cl -8.947164 9.244109 -5.262202
Cs -10.935423 11.298356 -3.157321
Cl -8.947164 9.244109 -1.052440
Cs 1.153438 3.081370 -7.091152
Cl 3.141697 1.027123 -4.986271
Cs 1.153438 3.081370 -2.881390
Cl 3.141697 1.027123 -0.776510
Cs 1.153438 3.081370 1.328371
Cl 3.141697 1.027123 3.433252
Cs -2.823079 7.189863 -11.300913
Cl -0.834821 5.135616 -9.196033
Cs -2.823079 7.189863 -7.091152
Cl -0.834821 5.135616 -4.986271
Cs -2.823079 7.189863 -2.881390
Cl -0.834821 5.135616 -0.776510
Cs -6.799597 11.298356 -15.510675
Cl -4.811338 9.244109 -13.405794
Cs -6.799597 11.298356 -11.300913
Cl -4.811338 9.244109 -9.196033
Cs -6.799597 11.298356 -7.091152
Cl -4.811338 9.244109 -4.986271
Cs 5.289264 3.081370 -11.024983
Cl 7.277523 1.027123 -8.920102
Cs 5.289264 3.081370 -6.815221
Cl 7.277523 1.027123 -4.710340
Cs 5.289264 3.081370 -2.605460
Cl 7.277523 1.027123 -0.500579
Cs 1.312747 7.189863 -15.234744
Cl 3.301005 5.135616 -13.129863
Cs 1.312747 7.189863 -11.024983
Cl 3.301005 5.135616 -8.920102
Cs 1.312747 7.189863 -6.815221
Cl 3.301005 5.135616 -4.710340
Cs -2.663771 11.298356 -19.444506
Cl -0.675512 9.244109 -17.339625
Cs -2.663771 11.298356 -15.234744
Cl -0.675512 9.244109 -13.129863
Cs -2.663771 11.298356 -11.024983
Cl -0.675512 9.244109 -8.920102
