54
A
Cs -2.909579 3.080548 -3.211736
Cl -0.969860 1.026849 -1.070579
Cs -2.909579 3.080548 1.070579
Cl -0.969860 1.026849 3.211736
Cs -2.909579 3.080548 5.352894
Cl -0.969860 1.026849 7.494052
Cs -6.789018 7.187945 -7.494052
Cl -4.849299 5.134246 -5.352894
Cs -6.789018 7.187945 -3.211736
Cl -4.849299 5.134246 -1.070579
Cs -6.789018 7.187945 1.070579
Cl -4.849299 5.134246 3.211736
Cs -10.668458 11.295342 -11.776367
Cl -8.728738 9.241643 -9.635209
Cs -10.668458 11.295342 -7.494052
Cl -8.728738 9.241643 -5.352894
Cs -10.668458 11.295342 -3.211736
Cl -8.728738 9.241643 -1.070579
Cs 1.245029 3.080548 -7.017444
Cl 3.184749 1.026849 -4.876286
Cs 1.245029 3.080548 -2.735129
Cl 3.184749 1.026849 -0.593971
Cs 1.245029 3.080548 1.547186
Cl 3.184749 1.026849 3.688344
Cs -2.634410 7.187945 -11.299759
Cl -0.694690 5.134246 -9.158602
Cs -2.634410 7.187945 -7.017444
Cl -0.694690 5.134246 -4.876286
Cs -2.634410 7.187945 -2.735129
Cl -0.694690 5.134246 -0.593971
Cs -6.513849 11.295342 -15.582075
Cl -4.574129 9.241643 -13.440917
Cs -6.513849 11.295342 -11.299759
Cl -4.574129 9.241643 -9.158602
Cs -6.513849 11.295342 -7.017444
Cl -4.574129 9.241643 -4.876286
Cs 5.399638 3.080548 -10.823152
Cl 7.339358 1.026849 -8.681994
Cs 5.399638 3.080548 -6.540836
Cl 7.339358 1.026849 -4.399679
Cs 5.399638 3.080548 -2.258521
Cl 7.339358 1.026849 -0.117364
Cs 1.520199 7.187945 -15.105467
Cl 3.459918 5.134246 -12.964309
Cs 1.520199 7.187945 -10.823152
Cl 3.459918 5.134246 -8.681994
Cs 1.520199 7.187945 -6.540836
Cl 3.459918 5.134246 -4.399679
Cs -2.359240 11.295342 -19.387782
Cl -0.419521 9.241643 -17.246625
Cs -2.359240 11.295342 -15.105467
Cl -0.419521 9.241643 -12.964309
Cs -2.359240 11.295342 -10.823152
Cl -0.419521 9.241643 -8.681994
