54
A
Cs -2.773063 3.079007 -3.313765
Cl -0.924354 1.026336 -1.104588
Cs -2.773063 3.079007 1.104588
Cl -0.924354 1.026336 3.313765
Cs -2.773063 3.079007 5.522942
Cl -0.924354 1.026336 7.732119
Cs -6.470480 7.184349 -7.732119
Cl -4.621772 5.131678 -5.522942
Cs -6.470480 7.184349 -3.313765
Cl -4.621772 5.131678 -1.104588
Cs -6.470480 7.184349 1.104588
Cl -4.621772 5.131678 3.313765
Cs -10.167898 11.289691 -12.150473
Cl -8.319189 9.237020 -9.941296
Cs -10.167898 11.289691 -7.732119
Cl -8.319189 9.237020 -5.522942
Cs -10.167898 11.289691 -3.313765
Cl -8.319189 9.237020 -1.104588
Cs 1.416763 3.079007 -6.879242
Cl 3.265472 1.026336 -4.670065
Cs 1.416763 3.079007 -2.460888
Cl 3.265472 1.026336 -0.251712
Cs 1.416763 3.079007 1.957465
Cl 3.265472 1.026336 4.166642
Cs -2.280654 7.184349 -11.297596
Cl -0.431946 5.131678 -9.088419
Cs -2.280654 7.184349 -6.879242
Cl -0.431946 5.131678 -4.670065
Cs -2.280654 7.184349 -2.460888
Cl -0.431946 5.131678 -0.251712
Cs -5.978072 11.289691 -15.715949
Cl -4.129363 9.237020 -13.506773
Cs -5.978072 11.289691 -11.297596
Cl -4.129363 9.237020 -9.088419
Cs -5.978072 11.289691 -6.879242
Cl -4.129363 9.237020 -4.670065
Cs 5.606589 3.079007 -10.444719
Cl 7.455298 1.026336 -8.235542
Cs 5.606589 3.079007 -6.026365
Cl 7.455298 1.026336 -3.817188
Cs 5.606589 3.079007 -1.608012
Cl 7.455298 1.026336 0.601165
Cs 1.909172 7.184349 -14.863073
Cl 3.757880 5.131678 -12.653896
Cs 1.909172 7.184349 -10.444719
Cl 3.757880 5.131678 -8.235542
Cs 1.909172 7.184349 -6.026365
Cl 3.757880 5.131678 -3.817188
Cs -1.788246 11.289691 -19.281426
Cl 0.060463 9.237020 -17.072249
Cs -1.788246 11.289691 -14.863073
Cl 0.060463 9.237020 -12.653896
Cs -1.788246 11.289691 -10.444719
Cl 0.060463 9.237020 -8.235542
