54
A
Cs -2.936883 3.080856 -3.191331
Cl -0.978961 1.026952 -1.063777
Cs -2.936883 3.080856 1.063777
Cl -0.978961 1.026952 3.191331
Cs -2.936883 3.080856 5.318885
Cl -0.978961 1.026952 7.446438
Cs -6.852726 7.188664 -7.446438
Cl -4.894804 5.134760 -5.318885
Cs -6.852726 7.188664 -3.191331
Cl -4.894804 5.134760 -1.063777
Cs -6.852726 7.188664 1.063777
Cl -4.894804 5.134760 3.191331
Cs -10.768570 11.296472 -11.701546
Cl -8.810648 9.242568 -9.573992
Cs -10.768570 11.296472 -7.446438
Cl -8.810648 9.242568 -5.318885
Cs -10.768570 11.296472 -3.191331
Cl -8.810648 9.242568 -1.063777
Cs 1.210683 3.080856 -2.789977
Cl 3.168604 1.026952 -0.662423
Cs 1.210683 3.080856 1.465131
Cl 3.168604 1.026952 3.592685
Cs 1.210683 3.080856 5.720238
Cl 3.168604 1.026952 7.847792
Cs -2.705161 7.188664 -7.045085
Cl -0.747239 5.134760 -4.917531
Cs -2.705161 7.188664 -2.789977
Cl -0.747239 5.134760 -0.662423
Cs -2.705161 7.188664 1.465131
Cl -0.747239 5.134760 3.592685
Cs -6.621004 11.296472 -11.300192
Cl -4.663083 9.242568 -9.172638
Cs -6.621004 11.296472 -7.045085
Cl -4.663083 9.242568 -4.917531
Cs -6.621004 11.296472 -2.789977
Cl -4.663083 9.242568 -0.662423
Cs 5.358248 3.080856 -2.388623
Cl 7.316170 1.026952 -0.261069
Cs 5.358248 3.080856 1.866485
Cl 7.316170 1.026952 3.994038
Cs 5.358248 3.080856 6.121592
Cl 7.316170 1.026952 8.249146
Cs 1.442404 7.188664 -6.643731
Cl 3.400326 5.134760 -4.516177
Cs 1.442404 7.188664 -2.388623
Cl 3.400326 5.134760 -0.261069
Cs 1.442404 7.188664 1.866485
Cl 3.400326 5.134760 3.994038
Cs -2.473439 11.296472 -10.898838
Cl -0.515517 9.242568 -8.771285
Cs -2.473439 11.296472 -6.643731
Cl -0.515517 9.242568 -4.516177
Cs -2.473439 11.296472 -2.388623
Cl -0.515517 9.242568 -0.261069
