54
A
Cs -2.691153 3.078082 -3.374983
Cl -0.897051 1.026027 -1.124994
Cs -2.691153 3.078082 1.124994
Cl -0.897051 1.026027 3.374983
Cs -2.691153 3.078082 5.624971
Cl -0.897051 1.026027 7.874959
Cs -6.279358 7.182191 -7.874959
Cl -4.485255 5.130136 -5.624971
Cs -6.279358 7.182191 -3.374983
Cl -4.485255 5.130136 -1.124994
Cs -6.279358 7.182191 1.124994
Cl -4.485255 5.130136 3.374983
Cs -9.867562 11.286300 -12.374936
Cl -8.073460 9.234245 -10.124948
Cs -9.867562 11.286300 -7.874959
Cl -8.073460 9.234245 -5.624971
Cs -9.867562 11.286300 -3.374983
Cl -8.073460 9.234245 -1.124994
Cs 1.519803 3.078082 -6.796321
Cl 3.313905 1.026027 -4.546333
Cs 1.519803 3.078082 -2.296344
Cl 3.313905 1.026027 -0.046356
Cs 1.519803 3.078082 2.203633
Cl 3.313905 1.026027 4.453621
Cs -2.068401 7.182191 -11.296298
Cl -0.274299 5.130136 -9.046309
Cs -2.068401 7.182191 -6.796321
Cl -0.274299 5.130136 -4.546333
Cs -2.068401 7.182191 -2.296344
Cl -0.274299 5.130136 -0.046356
Cs -5.656605 11.286300 -15.796274
Cl -3.862503 9.234245 -13.546286
Cs -5.656605 11.286300 -11.296298
Cl -3.862503 9.234245 -9.046309
Cs -5.656605 11.286300 -6.796321
Cl -3.862503 9.234245 -4.546333
Cs 5.730760 3.078082 -10.217659
Cl 7.524862 1.026027 -7.967671
Cs 5.730760 3.078082 -5.717683
Cl 7.524862 1.026027 -3.467694
Cs 5.730760 3.078082 -1.217706
Cl 7.524862 1.026027 1.032283
Cs 2.142555 7.182191 -14.717636
Cl 3.936658 5.130136 -12.467648
Cs 2.142555 7.182191 -10.217659
Cl 3.936658 5.130136 -7.967671
Cs 2.142555 7.182191 -5.717683
Cl 3.936658 5.130136 -3.467694
Cs -1.445649 11.286300 -19.217613
Cl 0.348453 9.234245 -16.967624
Cs -1.445649 11.286300 -14.717636
Cl 0.348453 9.234245 -12.467648
Cs -1.445649 11.286300 -10.217659
Cl 0.348453 9.234245 -7.967671
