54
A
Cs -2.518233 3.076130 -3.504219
Cl -0.839411 1.025377 -1.168073
Cs -2.518233 3.076130 1.168073
Cl -0.839411 1.025377 3.504219
Cs -2.518233 3.076130 5.840365
Cl -0.839411 1.025377 8.176511
Cs -5.875876 7.177636 -8.176511
Cl -4.197054 5.126883 -5.840365
Cs -5.875876 7.177636 -3.504219
Cl -4.197054 5.126883 -1.168073
Cs -5.875876 7.177636 1.168073
Cl -4.197054 5.126883 3.504219
Cs -9.233519 11.279142 -12.848803
Cl -7.554698 9.228389 -10.512657
Cs -9.233519 11.279142 -8.176511
Cl -7.554698 9.228389 -5.840365
Cs -9.233519 11.279142 -3.504219
Cl -7.554698 9.228389 -1.168073
Cs 1.737333 3.076130 -6.621265
Cl 3.416154 1.025377 -4.285119
Cs 1.737333 3.076130 -1.948973
Cl 3.416154 1.025377 0.387173
Cs 1.737333 3.076130 2.723319
Cl 3.416154 1.025377 5.059465
Cs -1.620311 7.177636 -11.293557
Cl 0.058511 5.126883 -8.957411
Cs -1.620311 7.177636 -6.621265
Cl 0.058511 5.126883 -4.285119
Cs -1.620311 7.177636 -1.948973
Cl 0.058511 5.126883 0.387173
Cs -4.977954 11.279142 -15.965849
Cl -3.299133 9.228389 -13.629703
Cs -4.977954 11.279142 -11.293557
Cl -3.299133 9.228389 -8.957411
Cs -4.977954 11.279142 -6.621265
Cl -3.299133 9.228389 -4.285119
Cs 5.992898 3.076130 -9.738311
Cl 7.671719 1.025377 -7.402165
Cs 5.992898 3.076130 -5.066019
Cl 7.671719 1.025377 -2.729873
Cs 5.992898 3.076130 -0.393727
Cl 7.671719 1.025377 1.942419
Cs 2.635254 7.177636 -14.410603
Cl 4.314076 5.126883 -12.074457
Cs 2.635254 7.177636 -9.738311
Cl 4.314076 5.126883 -7.402165
Cs 2.635254 7.177636 -5.066019
Cl 4.314076 5.126883 -2.729873
Cs -0.722389 11.279142 -19.082895
Cl 0.956433 9.228389 -16.746749
Cs -0.722389 11.279142 -14.410603
Cl 0.956433 9.228389 -12.074457
Cs -0.722389 11.279142 -9.738311
Cl 0.956433 9.228389 -7.402165
