54
A
Cs -2.390817 3.074691 -3.599446
Cl -0.796939 1.024897 -1.199815
Cs -2.390817 3.074691 1.199815
Cl -0.796939 1.024897 3.599446
Cs -2.390817 3.074691 5.999076
Cl -0.796939 1.024897 8.398707
Cs -5.578574 7.174279 -8.398707
Cl -3.984696 5.124485 -5.999076
Cs -5.578574 7.174279 -3.599446
Cl -3.984696 5.124485 -1.199815
Cs -5.578574 7.174279 1.199815
Cl -3.984696 5.124485 3.599446
Cs -8.766330 11.273867 -13.197968
Cl -7.172452 9.224073 -10.798338
Cs -8.766330 11.273867 -8.398707
Cl -7.172452 9.224073 -5.999076
Cs -8.766330 11.273867 -3.599446
Cl -7.172452 9.224073 -1.199815
Cs 1.897617 3.074691 -6.492276
Cl 3.491496 1.024897 -4.092646
Cs 1.897617 3.074691 -1.693015
Cl 3.491496 1.024897 0.706615
Cs 1.897617 3.074691 3.106246
Cl 3.491496 1.024897 5.505876
Cs -1.290139 7.174279 -11.291538
Cl 0.303739 5.124485 -8.891907
Cs -1.290139 7.174279 -6.492276
Cl 0.303739 5.124485 -4.092646
Cs -1.290139 7.174279 -1.693015
Cl 0.303739 5.124485 0.706615
Cs -4.477896 11.273867 -16.090799
Cl -2.884017 9.224073 -13.691168
Cs -4.477896 11.273867 -11.291538
Cl -2.884017 9.224073 -8.891907
Cs -4.477896 11.273867 -6.492276
Cl -2.884017 9.224073 -4.092646
Cs 6.186052 3.074691 -9.385107
Cl 7.779930 1.024897 -6.985476
Cs 6.186052 3.074691 -4.585846
Cl 7.779930 1.024897 -2.186215
Cs 6.186052 3.074691 0.213415
Cl 7.779930 1.024897 2.613046
Cs 2.998296 7.174279 -14.184368
Cl 4.592174 5.124485 -11.784738
Cs 2.998296 7.174279 -9.385107
Cl 4.592174 5.124485 -6.985476
Cs 2.998296 7.174279 -4.585846
Cl 4.592174 5.124485 -2.186215
Cs -0.189461 11.273867 -18.983629
Cl 1.404417 9.224073 -16.583999
Cs -0.189461 11.273867 -14.184368
Cl 1.404417 9.224073 -11.784738
Cs -0.189461 11.273867 -9.385107
Cl 1.404417 9.224073 -6.985476
