54
A
Cs -3.064298 3.082295 -3.096104
Cl -1.021433 1.027432 -1.032035
Cs -3.064298 3.082295 1.032035
Cl -1.021433 1.027432 3.096104
Cs -3.064298 3.082295 5.160173
Cl -1.021433 1.027432 7.224242
Cs -7.150028 7.192021 -7.224242
Cl -5.107163 5.137158 -5.160173
Cs -7.150028 7.192021 -3.096104
Cl -5.107163 5.137158 -1.032035
Cs -7.150028 7.192021 1.032035
Cl -5.107163 5.137158 3.096104
Cs -11.235759 11.301747 -11.352381
Cl -9.192893 9.246884 -9.288312
Cs -11.235759 11.301747 -7.224242
Cl -9.192893 9.246884 -5.160173
Cs -11.235759 11.301747 -3.096104
Cl -9.192893 9.246884 -1.032035
Cs 1.050398 3.082295 -3.045935
Cl 3.093263 1.027432 -0.981865
Cs 1.050398 3.082295 1.082204
Cl 3.093263 1.027432 3.146273
Cs 1.050398 3.082295 5.210342
Cl 3.093263 1.027432 7.274412
Cs -3.035333 7.192021 -7.174073
Cl -0.992467 5.137158 -5.110004
Cs -3.035333 7.192021 -3.045935
Cl -0.992467 5.137158 -0.981865
Cs -3.035333 7.192021 1.082204
Cl -0.992467 5.137158 3.146273
Cs -7.121063 11.301747 -11.302212
Cl -5.078198 9.246884 -9.238142
Cs -7.121063 11.301747 -7.174073
Cl -5.078198 9.246884 -5.110004
Cs -7.121063 11.301747 -3.045935
Cl -5.078198 9.246884 -0.981865
Cs 5.165093 3.082295 -2.995765
Cl 7.207959 1.027432 -0.931696
Cs 5.165093 3.082295 1.132373
Cl 7.207959 1.027432 3.196442
Cs 5.165093 3.082295 5.260512
Cl 7.207959 1.027432 7.324581
Cs 1.079363 7.192021 -7.123904
Cl 3.122228 5.137158 -5.059835
Cs 1.079363 7.192021 -2.995765
Cl 3.122228 5.137158 -0.931696
Cs 1.079363 7.192021 1.132373
Cl 3.122228 5.137158 3.196442
Cs -3.006367 11.301747 -11.252042
Cl -0.963502 9.246884 -9.187973
Cs -3.006367 11.301747 -7.123904
Cl -0.963502 9.246884 -5.059835
Cs -3.006367 11.301747 -2.995765
Cl -0.963502 9.246884 -0.931696
