54
A
Cs -2.372615 3.074486 -3.613050
Cl -0.790872 1.024829 -1.204350
Cs -2.372615 3.074486 1.204350
Cl -0.790872 1.024829 3.613050
Cs -2.372615 3.074486 6.021750
Cl -0.790872 1.024829 8.430449
Cs -5.536102 7.173800 -8.430449
Cl -3.954359 5.124143 -6.021750
Cs -5.536102 7.173800 -3.613050
Cl -3.954359 5.124143 -1.204350
Cs -5.536102 7.173800 1.204350
Cl -3.954359 5.124143 3.613050
Cs -8.699589 11.273114 -13.247849
Cl -7.117845 9.223457 -10.839149
Cs -8.699589 11.273114 -8.430449
Cl -7.117845 9.223457 -6.021750
Cs -8.699589 11.273114 -3.613050
Cl -7.117845 9.223457 -1.204350
Cs 1.920515 3.074486 -1.656450
Cl 3.502259 1.024829 0.752250
Cs 1.920515 3.074486 3.160950
Cl 3.502259 1.024829 5.569650
Cs 1.920515 3.074486 7.978349
Cl 3.502259 1.024829 10.387049
Cs -1.242972 7.173800 -6.473850
Cl 0.338772 5.124143 -4.065150
Cs -1.242972 7.173800 -1.656450
Cl 0.338772 5.124143 0.752250
Cs -1.242972 7.173800 3.160950
Cl 0.338772 5.124143 5.569650
Cs -4.406459 11.273114 -11.291249
Cl -2.824715 9.223457 -8.882549
Cs -4.406459 11.273114 -6.473850
Cl -2.824715 9.223457 -4.065150
Cs -4.406459 11.273114 -1.656450
Cl -2.824715 9.223457 0.752250
Cs 6.213645 3.074486 0.300150
Cl 7.795389 1.024829 2.708850
Cs 6.213645 3.074486 5.117550
Cl 7.795389 1.024829 7.526249
Cs 6.213645 3.074486 9.934949
Cl 7.795389 1.024829 12.343649
Cs 3.050159 7.173800 -4.517250
Cl 4.631902 5.124143 -2.108550
Cs 3.050159 7.173800 0.300150
Cl 4.631902 5.124143 2.708850
Cs 3.050159 7.173800 5.117550
Cl 4.631902 5.124143 7.526249
Cs -0.113328 11.273114 -9.334649
Cl 1.468415 9.223457 -6.925950
Cs -0.113328 11.273114 -4.517250
Cl 1.468415 9.223457 -2.108550
Cs -0.113328 11.273114 0.300150
Cl 1.468415 9.223457 2.708850
