54
A
Cs -2.800366 3.079315 -3.293360
Cl -0.933455 1.026438 -1.097787
Cs -2.800366 3.079315 1.097787
Cl -0.933455 1.026438 3.293360
Cs -2.800366 3.079315 5.488933
Cl -0.933455 1.026438 7.684506
Cs -6.534188 7.185068 -7.684506
Cl -4.667277 5.132191 -5.488933
Cs -6.534188 7.185068 -3.293360
Cl -4.667277 5.132191 -1.097787
Cs -6.534188 7.185068 1.097787
Cl -4.667277 5.132191 3.293360
Cs -10.268010 11.290821 -12.075652
Cl -8.401099 9.237944 -9.880079
Cs -10.268010 11.290821 -7.684506
Cl -8.401099 9.237944 -5.488933
Cs -10.268010 11.290821 -3.293360
Cl -8.401099 9.237944 -1.097787
Cs 1.382416 3.079315 -6.906883
Cl 3.249327 1.026438 -4.711310
Cs 1.382416 3.079315 -2.515737
Cl 3.249327 1.026438 -0.320163
Cs 1.382416 3.079315 1.875410
Cl 3.249327 1.026438 4.070983
Cs -2.351405 7.185068 -11.298029
Cl -0.484495 5.132191 -9.102456
Cs -2.351405 7.185068 -6.906883
Cl -0.484495 5.132191 -4.711310
Cs -2.351405 7.185068 -2.515737
Cl -0.484495 5.132191 -0.320163
Cs -6.085227 11.290821 -15.689175
Cl -4.218316 9.237944 -13.493602
Cs -6.085227 11.290821 -11.298029
Cl -4.218316 9.237944 -9.102456
Cs -6.085227 11.290821 -6.906883
Cl -4.218316 9.237944 -4.711310
Cs 5.565199 3.079315 -10.520406
Cl 7.432110 1.026438 -8.324833
Cs 5.565199 3.079315 -6.129260
Cl 7.432110 1.026438 -3.933687
Cs 5.565199 3.079315 -1.738113
Cl 7.432110 1.026438 0.457460
Cs 1.831377 7.185068 -14.911552
Cl 3.698288 5.132191 -12.715979
Cs 1.831377 7.185068 -10.520406
Cl 3.698288 5.132191 -8.324833
Cs 1.831377 7.185068 -6.129260
Cl 3.698288 5.132191 -3.933687
Cs -1.902445 11.290821 -19.302698
Cl -0.035534 9.237944 -17.107125
Cs -1.902445 11.290821 -14.911552
Cl -0.035534 9.237944 -12.715979
Cs -1.902445 11.290821 -10.520406
Cl -0.035534 9.237944 -8.324833
