54
A
Cs -2.226998 3.072842 -3.721880
Cl -0.742333 1.024281 -1.240627
Cs -2.226998 3.072842 1.240627
Cl -0.742333 1.024281 3.721880
Cs -2.226998 3.072842 6.203134
Cl -0.742333 1.024281 8.684388
Cs -5.196328 7.169964 -8.684388
Cl -3.711663 5.121403 -6.203134
Cs -5.196328 7.169964 -3.721880
Cl -3.711663 5.121403 -1.240627
Cs -5.196328 7.169964 1.240627
Cl -3.711663 5.121403 3.721880
Cs -8.165658 11.267086 -13.646895
Cl -6.680993 9.218525 -11.165641
Cs -8.165658 11.267086 -8.684388
Cl -6.680993 9.218525 -6.203134
Cs -8.165658 11.267086 -3.721880
Cl -6.680993 9.218525 -1.240627
Cs 2.103698 3.072842 -6.326434
Cl 3.588363 1.024281 -3.845180
Cs 2.103698 3.072842 -1.363927
Cl 3.588363 1.024281 1.117327
Cs 2.103698 3.072842 3.598580
Cl 3.588363 1.024281 6.079834
Cs -0.865633 7.169964 -11.288941
Cl 0.619033 5.121403 -8.807688
Cs -0.865633 7.169964 -6.326434
Cl 0.619033 5.121403 -3.845180
Cs -0.865633 7.169964 -1.363927
Cl 0.619033 5.121403 1.117327
Cs -3.834963 11.267086 -16.251449
Cl -2.350298 9.218525 -13.770195
Cs -3.834963 11.267086 -11.288941
Cl -2.350298 9.218525 -8.807688
Cs -3.834963 11.267086 -6.326434
Cl -2.350298 9.218525 -3.845180
Cs 6.434393 3.072842 -8.930988
Cl 7.919058 1.024281 -6.449734
Cs 6.434393 3.072842 -3.968480
Cl 7.919058 1.024281 -1.487227
Cs 6.434393 3.072842 0.994027
Cl 7.919058 1.024281 3.475280
Cs 3.465063 7.169964 -13.893495
Cl 4.949728 5.121403 -11.412241
Cs 3.465063 7.169964 -8.930988
Cl 4.949728 5.121403 -6.449734
Cs 3.465063 7.169964 -3.968480
Cl 4.949728 5.121403 -1.487227
Cs 0.495733 11.267086 -18.856002
Cl 1.980398 9.218525 -16.374749
Cs 0.495733 11.267086 -13.893495
Cl 1.980398 9.218525 -11.412241
Cs 0.495733 11.267086 -8.930988
Cl 1.980398 9.218525 -6.449734
