54
A
Cs -2.836771 3.079726 -3.266152
Cl -0.945590 1.026575 -1.088717
Cs -2.836771 3.079726 1.088717
Cl -0.945590 1.026575 3.266152
Cs -2.836771 3.079726 5.443586
Cl -0.945590 1.026575 7.621021
Cs -6.619131 7.186027 -7.621021
Cl -4.727951 5.132876 -5.443586
Cs -6.619131 7.186027 -3.266152
Cl -4.727951 5.132876 -1.088717
Cs -6.619131 7.186027 1.088717
Cl -4.727951 5.132876 3.266152
Cs -10.401492 11.292328 -11.975890
Cl -8.510312 9.239177 -9.798455
Cs -10.401492 11.292328 -7.621021
Cl -8.510312 9.239177 -5.443586
Cs -10.401492 11.292328 -3.266152
Cl -8.510312 9.239177 -1.088717
Cs 1.336621 3.079726 -2.588867
Cl 3.227801 1.026575 -0.411433
Cs 1.336621 3.079726 1.766002
Cl 3.227801 1.026575 3.943436
Cs 1.336621 3.079726 6.120871
Cl 3.227801 1.026575 8.298305
Cs -2.445740 7.186027 -6.943736
Cl -0.554560 5.132876 -4.766302
Cs -2.445740 7.186027 -2.588867
Cl -0.554560 5.132876 -0.411433
Cs -2.445740 7.186027 1.766002
Cl -0.554560 5.132876 3.943436
Cs -6.228101 11.292328 -11.298605
Cl -4.336921 9.239177 -9.121171
Cs -6.228101 11.292328 -6.943736
Cl -4.336921 9.239177 -4.766302
Cs -6.228101 11.292328 -2.588867
Cl -4.336921 9.239177 -0.411433
Cs 5.510012 3.079726 -1.911583
Cl 7.401192 1.026575 0.265852
Cs 5.510012 3.079726 2.443286
Cl 7.401192 1.026575 4.620721
Cs 5.510012 3.079726 6.798155
Cl 7.401192 1.026575 8.975590
Cs 1.727651 7.186027 -6.266452
Cl 3.618831 5.132876 -4.089017
Cs 1.727651 7.186027 -1.911583
Cl 3.618831 5.132876 0.265852
Cs 1.727651 7.186027 2.443286
Cl 3.618831 5.132876 4.620721
Cs -2.054710 11.292328 -10.621321
Cl -0.163529 9.239177 -8.443886
Cs -2.054710 11.292328 -6.266452
Cl -0.163529 9.239177 -4.089017
Cs -2.054710 11.292328 -1.911583
Cl -0.163529 9.239177 0.265852
