54
A
Cs -2.991489 3.081473 -3.150519
Cl -0.997163 1.027158 -1.050173
Cs -2.991489 3.081473 1.050173
Cl -0.997163 1.027158 3.150519
Cs -2.991489 3.081473 5.250865
Cl -0.997163 1.027158 7.351211
Cs -6.980141 7.190103 -7.351211
Cl -4.985815 5.135788 -5.250865
Cs -6.980141 7.190103 -3.150519
Cl -4.985815 5.135788 -1.050173
Cs -6.980141 7.190103 1.050173
Cl -4.985815 5.135788 3.150519
Cs -10.968793 11.298733 -11.551904
Cl -8.974467 9.244418 -9.451558
Cs -10.968793 11.298733 -7.351211
Cl -8.974467 9.244418 -5.250865
Cs -10.968793 11.298733 -3.150519
Cl -8.974467 9.244418 -1.050173
Cs 1.141989 3.081473 -7.100365
Cl 3.136315 1.027158 -5.000019
Cs 1.141989 3.081473 -2.899673
Cl 3.136315 1.027158 -0.799327
Cs 1.141989 3.081473 1.301019
Cl 3.136315 1.027158 3.401365
Cs -2.846663 7.190103 -11.301058
Cl -0.852337 5.135788 -9.200711
Cs -2.846663 7.190103 -7.100365
Cl -0.852337 5.135788 -5.000019
Cs -2.846663 7.190103 -2.899673
Cl -0.852337 5.135788 -0.799327
Cs -6.835315 11.298733 -15.501750
Cl -4.840989 9.244418 -13.401404
Cs -6.835315 11.298733 -11.301058
Cl -4.840989 9.244418 -9.200711
Cs -6.835315 11.298733 -7.100365
Cl -4.840989 9.244418 -5.000019
Cs 5.275467 3.081473 -11.050211
Cl 7.269793 1.027158 -8.949865
Cs 5.275467 3.081473 -6.849519
Cl 7.269793 1.027158 -4.749173
Cs 5.275467 3.081473 -2.648827
Cl 7.269793 1.027158 -0.548481
Cs 1.286815 7.190103 -15.250904
Cl 3.281141 5.135788 -13.150558
Cs 1.286815 7.190103 -11.050211
Cl 3.281141 5.135788 -8.949865
Cs 1.286815 7.190103 -6.849519
Cl 3.281141 5.135788 -4.749173
Cs -2.701837 11.298733 -19.451596
Cl -0.707511 9.244418 -17.351250
Cs -2.701837 11.298733 -15.250904
Cl -0.707511 9.244418 -13.150558
Cs -2.701837 11.298733 -11.050211
Cl -0.707511 9.244418 -8.949865
