54
A
Cs -2.955085 3.081062 -3.177727
Cl -0.985028 1.027021 -1.059242
Cs -2.955085 3.081062 1.059242
Cl -0.985028 1.027021 3.177727
Cs -2.955085 3.081062 5.296211
Cl -0.985028 1.027021 7.414696
Cs -6.895198 7.189144 -7.414696
Cl -4.925141 5.135103 -5.296211
Cs -6.895198 7.189144 -3.177727
Cl -4.925141 5.135103 -1.059242
Cs -6.895198 7.189144 1.059242
Cl -4.925141 5.135103 3.177727
Cs -10.835311 11.297226 -11.651665
Cl -8.865254 9.243185 -9.533181
Cs -10.835311 11.297226 -7.414696
Cl -8.865254 9.243185 -5.296211
Cs -10.835311 11.297226 -3.177727
Cl -8.865254 9.243185 -1.059242
Cs 1.187785 3.081062 -2.826542
Cl 3.157841 1.027021 -0.708058
Cs 1.187785 3.081062 1.410427
Cl 3.157841 1.027021 3.528911
Cs 1.187785 3.081062 5.647396
Cl 3.157841 1.027021 7.765881
Cs -2.752328 7.189144 -7.063511
Cl -0.782272 5.135103 -4.945027
Cs -2.752328 7.189144 -2.826542
Cl -0.782272 5.135103 -0.708058
Cs -2.752328 7.189144 1.410427
Cl -0.782272 5.135103 3.528911
Cs -6.692441 11.297226 -11.300481
Cl -4.722385 9.243185 -9.181996
Cs -6.692441 11.297226 -7.063511
Cl -4.722385 9.243185 -4.945027
Cs -6.692441 11.297226 -2.826542
Cl -4.722385 9.243185 -0.708058
Cs 5.330654 3.081062 -2.475358
Cl 7.300711 1.027021 -0.356873
Cs 5.330654 3.081062 1.761611
Cl 7.300711 1.027021 3.880096
Cs 5.330654 3.081062 5.998581
Cl 7.300711 1.027021 8.117065
Cs 1.390541 7.189144 -6.712327
Cl 3.360598 5.135103 -4.593842
Cs 1.390541 7.189144 -2.475358
Cl 3.360598 5.135103 -0.356873
Cs 1.390541 7.189144 1.761611
Cl 3.360598 5.135103 3.880096
Cs -2.549572 11.297226 -10.949296
Cl -0.579515 9.243185 -8.830811
Cs -2.549572 11.297226 -6.712327
Cl -0.579515 9.243185 -4.593842
Cs -2.549572 11.297226 -2.475358
Cl -0.579515 9.243185 -0.356873
