54
A
Cs -3.055197 3.082192 -3.102906
Cl -1.018399 1.027397 -1.034302
Cs -3.055197 3.082192 1.034302
Cl -1.018399 1.027397 3.102906
Cs -3.055197 3.082192 5.171510
Cl -1.018399 1.027397 7.240113
Cs -7.128792 7.191781 -7.240113
Cl -5.091995 5.136986 -5.171510
Cs -7.128792 7.191781 -3.102906
Cl -5.091995 5.136986 -1.034302
Cs -7.128792 7.191781 1.034302
Cl -5.091995 5.136986 3.102906
Cs -11.202388 11.301370 -11.377321
Cl -9.165590 9.246575 -9.308717
Cs -11.202388 11.301370 -7.240113
Cl -9.165590 9.246575 -5.171510
Cs -11.202388 11.301370 -3.102906
Cl -9.165590 9.246575 -1.034302
Cs 1.061847 3.082192 -3.027652
Cl 3.098645 1.027397 -0.959048
Cs 1.061847 3.082192 1.109556
Cl 3.098645 1.027397 3.178160
Cs 1.061847 3.082192 5.246763
Cl 3.098645 1.027397 7.315367
Cs -3.011749 7.191781 -7.164860
Cl -0.974951 5.136986 -5.096256
Cs -3.011749 7.191781 -3.027652
Cl -0.974951 5.136986 -0.959048
Cs -3.011749 7.191781 1.109556
Cl -0.974951 5.136986 3.178160
Cs -7.085345 11.301370 -11.302067
Cl -5.048547 9.246575 -9.233463
Cs -7.085345 11.301370 -7.164860
Cl -5.048547 9.246575 -5.096256
Cs -7.085345 11.301370 -3.027652
Cl -5.048547 9.246575 -0.959048
Cs 5.178890 3.082192 -2.952398
Cl 7.215688 1.027397 -0.883794
Cs 5.178890 3.082192 1.184810
Cl 7.215688 1.027397 3.253413
Cs 5.178890 3.082192 5.322017
Cl 7.215688 1.027397 7.390621
Cs 1.105295 7.191781 -7.089606
Cl 3.142092 5.136986 -5.021002
Cs 1.105295 7.191781 -2.952398
Cl 3.142092 5.136986 -0.883794
Cs 1.105295 7.191781 1.184810
Cl 3.142092 5.136986 3.253413
Cs -2.968301 11.301370 -11.226813
Cl -0.931503 9.246575 -9.158210
Cs -2.968301 11.301370 -7.089606
Cl -0.931503 9.246575 -5.021002
Cs -2.968301 11.301370 -2.952398
Cl -0.931503 9.246575 -0.883794
