54
A
Cs -2.472727 3.075616 -3.538229
Cl -0.824242 1.025205 -1.179410
Cs -2.472727 3.075616 1.179410
Cl -0.824242 1.025205 3.538229
Cs -2.472727 3.075616 5.897048
Cl -0.824242 1.025205 8.255867
Cs -5.769697 7.176437 -8.255867
Cl -4.121212 5.126026 -5.897048
Cs -5.769697 7.176437 -3.538229
Cl -4.121212 5.126026 -1.179410
Cs -5.769697 7.176437 1.179410
Cl -4.121212 5.126026 3.538229
Cs -9.066666 11.277258 -12.973505
Cl -7.418181 9.226847 -10.614686
Cs -9.066666 11.277258 -8.255867
Cl -7.418181 9.226847 -5.897048
Cs -9.066666 11.277258 -3.538229
Cl -7.418181 9.226847 -1.179410
Cs 1.794577 3.075616 -6.575198
Cl 3.443062 1.025205 -4.216379
Cs 1.794577 3.075616 -1.857560
Cl 3.443062 1.025205 0.501260
Cs 1.794577 3.075616 2.860079
Cl 3.443062 1.025205 5.218898
Cs -1.502392 7.176437 -11.292836
Cl 0.146092 5.126026 -8.934017
Cs -1.502392 7.176437 -6.575198
Cl 0.146092 5.126026 -4.216379
Cs -1.502392 7.176437 -1.857560
Cl 0.146092 5.126026 0.501260
Cs -4.799362 11.277258 -16.010474
Cl -3.150877 9.226847 -13.651655
Cs -4.799362 11.277258 -11.292836
Cl -3.150877 9.226847 -8.934017
Cs -4.799362 11.277258 -6.575198
Cl -3.150877 9.226847 -4.216379
Cs 6.061881 3.075616 -9.612167
Cl 7.710366 1.025205 -7.253348
Cs 6.061881 3.075616 -4.894529
Cl 7.710366 1.025205 -2.535710
Cs 6.061881 3.075616 -0.176890
Cl 7.710366 1.025205 2.181929
Cs 2.764912 7.176437 -14.329805
Cl 4.413397 5.126026 -11.970986
Cs 2.764912 7.176437 -9.612167
Cl 4.413397 5.126026 -7.253348
Cs 2.764912 7.176437 -4.894529
Cl 4.413397 5.126026 -2.535710
Cs -0.532058 11.277258 -19.047443
Cl 1.116427 9.226847 -16.688624
Cs -0.532058 11.277258 -14.329805
Cl 1.116427 9.226847 -11.970986
Cs -0.532058 11.277258 -9.612167
Cl 1.116427 9.226847 -7.253348
