54
A
Cs -2.327110 3.073972 -3.647059
Cl -0.775703 1.024657 -1.215686
Cs -2.327110 3.073972 1.215686
Cl -0.775703 1.024657 3.647059
Cs -2.327110 3.073972 6.078432
Cl -0.775703 1.024657 8.509805
Cs -5.429923 7.172601 -8.509805
Cl -3.878516 5.123286 -6.078432
Cs -5.429923 7.172601 -3.647059
Cl -3.878516 5.123286 -1.215686
Cs -5.429923 7.172601 1.215686
Cl -3.878516 5.123286 3.647059
Cs -8.532736 11.271230 -13.372551
Cl -6.981329 9.221916 -10.941178
Cs -8.532736 11.271230 -8.509805
Cl -6.981329 9.221916 -6.078432
Cs -8.532736 11.271230 -3.647059
Cl -6.981329 9.221916 -1.215686
Cs 1.977760 3.073972 -1.565036
Cl 3.529166 1.024657 0.866336
Cs 1.977760 3.073972 3.297709
Cl 3.529166 1.024657 5.729082
Cs 1.977760 3.073972 8.160455
Cl 3.529166 1.024657 10.591828
Cs -1.125053 7.172601 -6.427782
Cl 0.426353 5.123286 -3.996409
Cs -1.125053 7.172601 -1.565036
Cl 0.426353 5.123286 0.866336
Cs -1.125053 7.172601 3.297709
Cl 0.426353 5.123286 5.729082
Cs -4.227866 11.271230 -11.290528
Cl -2.676460 9.221916 -8.859155
Cs -4.227866 11.271230 -6.427782
Cl -2.676460 9.221916 -3.996409
Cs -4.227866 11.271230 -1.565036
Cl -2.676460 9.221916 0.866336
Cs 6.282629 3.073972 0.516986
Cl 7.834036 1.024657 2.948359
Cs 6.282629 3.073972 5.379732
Cl 7.834036 1.024657 7.811105
Cs 6.282629 3.073972 10.242478
Cl 7.834036 1.024657 12.673851
Cs 3.179816 7.172601 -4.345759
Cl 4.731223 5.123286 -1.914386
Cs 3.179816 7.172601 0.516986
Cl 4.731223 5.123286 2.948359
Cs 3.179816 7.172601 5.379732
Cl 4.731223 5.123286 7.811105
Cs 0.077003 11.271230 -9.208505
Cl 1.628410 9.221916 -6.777132
Cs 0.077003 11.271230 -4.345759
Cl 1.628410 9.221916 -1.914386
Cs 0.077003 11.271230 0.516986
Cl 1.628410 9.221916 2.948359
