54
A
Cs -2.190593 3.072431 -3.749088
Cl -0.730198 1.024144 -1.249696
Cs -2.190593 3.072431 1.249696
Cl -0.730198 1.024144 3.749088
Cs -2.190593 3.072431 6.248480
Cl -0.730198 1.024144 8.747872
Cs -5.111385 7.169005 -8.747872
Cl -3.650989 5.120718 -6.248480
Cs -5.111385 7.169005 -3.749088
Cl -3.650989 5.120718 -1.249696
Cs -5.111385 7.169005 1.249696
Cl -3.650989 5.120718 3.749088
Cs -8.032176 11.265579 -13.746656
Cl -6.571780 9.217292 -11.247264
Cs -8.032176 11.265579 -8.747872
Cl -6.571780 9.217292 -6.248480
Cs -8.032176 11.265579 -3.749088
Cl -6.571780 9.217292 -1.249696
Cs 2.149493 3.072431 -6.289580
Cl 3.609889 1.024144 -3.790188
Cs 2.149493 3.072431 -1.290796
Cl 3.609889 1.024144 1.208596
Cs 2.149493 3.072431 3.707988
Cl 3.609889 1.024144 6.207380
Cs -0.771298 7.169005 -11.288364
Cl 0.689098 5.120718 -8.788972
Cs -0.771298 7.169005 -6.289580
Cl 0.689098 5.120718 -3.790188
Cs -0.771298 7.169005 -1.290796
Cl 0.689098 5.120718 1.208596
Cs -3.692089 11.265579 -16.287149
Cl -2.231693 9.217292 -13.787756
Cs -3.692089 11.265579 -11.288364
Cl -2.231693 9.217292 -8.788972
Cs -3.692089 11.265579 -6.289580
Cl -2.231693 9.217292 -3.790188
Cs 6.489580 3.072431 -8.830072
Cl 7.949976 1.024144 -6.330680
Cs 6.489580 3.072431 -3.831288
Cl 7.949976 1.024144 -1.331896
Cs 6.489580 3.072431 1.167496
Cl 7.949976 1.024144 3.666888
Cs 3.568789 7.169005 -13.828856
Cl 5.029185 5.120718 -11.329464
Cs 3.568789 7.169005 -8.830072
Cl 5.029185 5.120718 -6.330680
Cs 3.568789 7.169005 -3.831288
Cl 5.029185 5.120718 -1.331896
Cs 0.647998 11.265579 -18.827641
Cl 2.108393 9.217292 -16.328249
Cs 0.647998 11.265579 -13.828856
Cl 2.108393 9.217292 -11.329464
Cs 0.647998 11.265579 -8.830072
Cl 2.108393 9.217292 -6.330680
