54
A
Cs -2.554637 3.076541 -3.477011
Cl -0.851546 1.025514 -1.159004
Cs -2.554637 3.076541 1.159004
Cl -0.851546 1.025514 3.477011
Cs -2.554637 3.076541 5.795019
Cl -0.851546 1.025514 8.113026
Cs -5.960819 7.178595 -8.113026
Cl -4.257728 5.127568 -5.795019
Cs -5.960819 7.178595 -3.477011
Cl -4.257728 5.127568 -1.159004
Cs -5.960819 7.178595 1.159004
Cl -4.257728 5.127568 3.477011
Cs -9.367002 11.280649 -12.749042
Cl -7.663911 9.229622 -10.431034
Cs -9.367002 11.280649 -8.113026
Cl -7.663911 9.229622 -5.795019
Cs -9.367002 11.280649 -3.477011
Cl -7.663911 9.229622 -1.159004
Cs 1.691537 3.076541 -2.022104
Cl 3.394628 1.025514 0.295904
Cs 1.691537 3.076541 2.613911
Cl 3.394628 1.025514 4.931919
Cs 1.691537 3.076541 7.249926
Cl 3.394628 1.025514 9.567934
Cs -1.714646 7.178595 -6.658119
Cl -0.011554 5.127568 -4.340111
Cs -1.714646 7.178595 -2.022104
Cl -0.011554 5.127568 0.295904
Cs -1.714646 7.178595 2.613911
Cl -0.011554 5.127568 4.931919
Cs -5.120828 11.280649 -11.294134
Cl -3.417737 9.229622 -8.976126
Cs -5.120828 11.280649 -6.658119
Cl -3.417737 9.229622 -4.340111
Cs -5.120828 11.280649 -2.022104
Cl -3.417737 9.229622 0.295904
Cs 5.937711 3.076541 -0.567196
Cl 7.640802 1.025514 1.750811
Cs 5.937711 3.076541 4.068819
Cl 7.640802 1.025514 6.386826
Cs 5.937711 3.076541 8.704834
Cl 7.640802 1.025514 11.022842
Cs 2.531528 7.178595 -5.203211
Cl 4.234619 5.127568 -2.885204
Cs 2.531528 7.178595 -0.567196
Cl 4.234619 5.127568 1.750811
Cs 2.531528 7.178595 4.068819
Cl 4.234619 5.127568 6.386826
Cs -0.874654 11.280649 -9.839226
Cl 0.828437 9.229622 -7.521219
Cs -0.874654 11.280649 -5.203211
Cl 0.828437 9.229622 -2.885204
Cs -0.874654 11.280649 -0.567196
Cl 0.828437 9.229622 1.750811
