54
A
Cs -2.172391 3.072225 -3.762692
Cl -0.724130 1.024075 -1.254231
Cs -2.172391 3.072225 1.254231
Cl -0.724130 1.024075 3.762692
Cs -2.172391 3.072225 6.271153
Cl -0.724130 1.024075 8.779615
Cs -5.068913 7.168525 -8.779615
Cl -3.620652 5.120375 -6.271153
Cs -5.068913 7.168525 -3.762692
Cl -3.620652 5.120375 -1.254231
Cs -5.068913 7.168525 1.254231
Cl -3.620652 5.120375 3.762692
Cs -7.965434 11.264825 -13.796537
Cl -6.517174 9.216675 -11.288076
Cs -7.965434 11.264825 -8.779615
Cl -6.517174 9.216675 -6.271153
Cs -7.965434 11.264825 -3.762692
Cl -6.517174 9.216675 -1.254231
Cs 2.172391 3.072225 -6.271153
Cl 3.620652 1.024075 -3.762692
Cs 2.172391 3.072225 -1.254231
Cl 3.620652 1.024075 1.254231
Cs 2.172391 3.072225 3.762692
Cl 3.620652 1.024075 6.271153
Cs -0.724130 7.168525 -11.288076
Cl 0.724130 5.120375 -8.779615
Cs -0.724130 7.168525 -6.271153
Cl 0.724130 5.120375 -3.762692
Cs -0.724130 7.168525 -1.254231
Cl 0.724130 5.120375 1.254231
Cs -3.620652 11.264825 -16.304998
Cl -2.172391 9.216675 -13.796537
Cs -3.620652 11.264825 -11.288076
Cl -2.172391 9.216675 -8.779615
Cs -3.620652 11.264825 -6.271153
Cl -2.172391 9.216675 -3.762692
Cs 6.517174 3.072225 -8.779615
Cl 7.965434 1.024075 -6.271153
Cs 6.517174 3.072225 -3.762692
Cl 7.965434 1.024075 -1.254231
Cs 6.517174 3.072225 1.254231
Cl 7.965434 1.024075 3.762692
Cs 3.620652 7.168525 -13.796537
Cl 5.068913 5.120375 -11.288076
Cs 3.620652 7.168525 -8.779615
Cl 5.068913 5.120375 -6.271153
Cs 3.620652 7.168525 -3.762692
Cl 5.068913 5.120375 -1.254231
Cs 0.724130 11.264825 -18.813460
Cl 2.172391 9.216675 -16.304998
Cs 0.724130 11.264825 -13.796537
Cl 2.172391 9.216675 -11.288076
Cs 0.724130 11.264825 -8.779615
Cl 2.172391 9.216675 -6.271153
