54
A
Cs -2.381716 3.074588 -3.606248
Cl -0.793905 1.024863 -1.202083
Cs -2.381716 3.074588 1.202083
Cl -0.793905 1.024863 3.606248
Cs -2.381716 3.074588 6.010413
Cl -0.793905 1.024863 8.414578
Cs -5.557338 7.174039 -8.414578
Cl -3.969527 5.124314 -6.010413
Cs -5.557338 7.174039 -3.606248
Cl -3.969527 5.124314 -1.202083
Cs -5.557338 7.174039 1.202083
Cl -3.969527 5.124314 3.606248
Cs -8.732960 11.273491 -13.222909
Cl -7.145149 9.223765 -10.818743
Cs -8.732960 11.273491 -8.414578
Cl -7.145149 9.223765 -6.010413
Cs -8.732960 11.273491 -3.606248
Cl -7.145149 9.223765 -1.202083
Cs 1.909066 3.074588 -6.483063
Cl 3.496877 1.024863 -4.078898
Cs 1.909066 3.074588 -1.674733
Cl 3.496877 1.024863 0.729433
Cs 1.909066 3.074588 3.133598
Cl 3.496877 1.024863 5.537763
Cs -1.266555 7.174039 -11.291393
Cl 0.321255 5.124314 -8.887228
Cs -1.266555 7.174039 -6.483063
Cl 0.321255 5.124314 -4.078898
Cs -1.266555 7.174039 -1.674733
Cl 0.321255 5.124314 0.729433
Cs -4.442177 11.273491 -16.099724
Cl -2.854366 9.223765 -13.695559
Cs -4.442177 11.273491 -11.291393
Cl -2.854366 9.223765 -8.887228
Cs -4.442177 11.273491 -6.483063
Cl -2.854366 9.223765 -4.078898
Cs 6.199849 3.074588 -9.359878
Cl 7.787660 1.024863 -6.955713
Cs 6.199849 3.074588 -4.551548
Cl 7.787660 1.024863 -2.147383
Cs 6.199849 3.074588 0.256783
Cl 7.787660 1.024863 2.660948
Cs 3.024227 7.174039 -14.168209
Cl 4.612038 5.124314 -11.764043
Cs 3.024227 7.174039 -9.359878
Cl 4.612038 5.124314 -6.955713
Cs 3.024227 7.174039 -4.551548
Cl 4.612038 5.124314 -2.147383
Cs -0.151395 11.273491 -18.976539
Cl 1.436416 9.223765 -16.572374
Cs -0.151395 11.273491 -14.168209
Cl 1.436416 9.223765 -11.764043
Cs -0.151395 11.273491 -9.359878
Cl 1.436416 9.223765 -6.955713
