54
A
Cs -2.336211 3.074075 -3.640257
Cl -0.778737 1.024692 -1.213419
Cs -2.336211 3.074075 1.213419
Cl -0.778737 1.024692 3.640257
Cs -2.336211 3.074075 6.067096
Cl -0.778737 1.024692 8.493934
Cs -5.451159 7.172841 -8.493934
Cl -3.893685 5.123458 -6.067096
Cs -5.451159 7.172841 -3.640257
Cl -3.893685 5.123458 -1.213419
Cs -5.451159 7.172841 1.213419
Cl -3.893685 5.123458 3.640257
Cs -8.566106 11.271607 -13.347610
Cl -7.008632 9.222224 -10.920772
Cs -8.566106 11.271607 -8.493934
Cl -7.008632 9.222224 -6.067096
Cs -8.566106 11.271607 -3.640257
Cl -7.008632 9.222224 -1.213419
Cs 1.966311 3.074075 -6.436996
Cl 3.523785 1.024692 -4.010157
Cs 1.966311 3.074075 -1.583319
Cl 3.523785 1.024692 0.843519
Cs 1.966311 3.074075 3.270357
Cl 3.523785 1.024692 5.697196
Cs -1.148637 7.172841 -11.290672
Cl 0.408837 5.123458 -8.863834
Cs -1.148637 7.172841 -6.436996
Cl 0.408837 5.123458 -4.010157
Cs -1.148637 7.172841 -1.583319
Cl 0.408837 5.123458 0.843519
Cs -4.263585 11.271607 -16.144349
Cl -2.706111 9.222224 -13.717510
Cs -4.263585 11.271607 -11.290672
Cl -2.706111 9.222224 -8.863834
Cs -4.263585 11.271607 -6.436996
Cl -2.706111 9.222224 -4.010157
Cs 6.268832 3.074075 -9.233734
Cl 7.826306 1.024692 -6.806896
Cs 6.268832 3.074075 -4.380057
Cl 7.826306 1.024692 -1.953219
Cs 6.268832 3.074075 0.473619
Cl 7.826306 1.024692 2.900457
Cs 3.153885 7.172841 -14.087410
Cl 4.711359 5.123458 -11.660572
Cs 3.153885 7.172841 -9.233734
Cl 4.711359 5.123458 -6.806896
Cs 3.153885 7.172841 -4.380057
Cl 4.711359 5.123458 -1.953219
Cs 0.038937 11.271607 -18.941087
Cl 1.596411 9.222224 -16.514249
Cs 0.038937 11.271607 -14.087410
Cl 1.596411 9.222224 -11.660572
Cs 0.038937 11.271607 -9.233734
Cl 1.596411 9.222224 -6.806896
