54
A
Cs -2.864074 3.080034 -3.245746
Cl -0.954691 1.026678 -1.081915
Cs -2.864074 3.080034 1.081915
Cl -0.954691 1.026678 3.245746
Cs -2.864074 3.080034 5.409577
Cl -0.954691 1.026678 7.573407
Cs -6.682839 7.186746 -7.573407
Cl -4.773456 5.133390 -5.409577
Cs -6.682839 7.186746 -3.245746
Cl -4.773456 5.133390 -1.081915
Cs -6.682839 7.186746 1.081915
Cl -4.773456 5.133390 3.245746
Cs -10.501604 11.293458 -11.901069
Cl -8.592222 9.240102 -9.737238
Cs -10.501604 11.293458 -7.573407
Cl -8.592222 9.240102 -5.409577
Cs -10.501604 11.293458 -3.245746
Cl -8.592222 9.240102 -1.081915
Cs 1.302274 3.080034 -2.643715
Cl 3.211656 1.026678 -0.479885
Cs 1.302274 3.080034 1.683946
Cl 3.211656 1.026678 3.847777
Cs 1.302274 3.080034 6.011607
Cl 3.211656 1.026678 8.175438
Cs -2.516491 7.186746 -6.971377
Cl -0.607109 5.133390 -4.807546
Cs -2.516491 7.186746 -2.643715
Cl -0.607109 5.133390 -0.479885
Cs -2.516491 7.186746 1.683946
Cl -0.607109 5.133390 3.847777
Cs -6.335256 11.293458 -11.299038
Cl -4.425874 9.240102 -9.135207
Cs -6.335256 11.293458 -6.971377
Cl -4.425874 9.240102 -4.807546
Cs -6.335256 11.293458 -2.643715
Cl -4.425874 9.240102 -0.479885
Cs 5.468622 3.080034 -2.041685
Cl 7.378004 1.026678 0.122146
Cs 5.468622 3.080034 2.285977
Cl 7.378004 1.026678 4.449807
Cs 5.468622 3.080034 6.613638
Cl 7.378004 1.026678 8.777469
Cs 1.649856 7.186746 -6.369346
Cl 3.559239 5.133390 -4.205515
Cs 1.649856 7.186746 -2.041685
Cl 3.559239 5.133390 0.122146
Cs 1.649856 7.186746 2.285977
Cl 3.559239 5.133390 4.449807
Cs -2.168909 11.293458 -10.697007
Cl -0.259526 9.240102 -8.533177
Cs -2.168909 11.293458 -6.369346
Cl -0.259526 9.240102 -4.205515
Cs -2.168909 11.293458 -2.041685
Cl -0.259526 9.240102 0.122146
