54
A
Cs -2.791265 3.079212 -3.300161
Cl -0.930422 1.026404 -1.100054
Cs -2.791265 3.079212 1.100054
Cl -0.930422 1.026404 3.300161
Cs -2.791265 3.079212 5.500269
Cl -0.930422 1.026404 7.700377
Cs -6.512952 7.184828 -7.700377
Cl -4.652109 5.132020 -5.500269
Cs -6.512952 7.184828 -3.300161
Cl -4.652109 5.132020 -1.100054
Cs -6.512952 7.184828 1.100054
Cl -4.652109 5.132020 3.300161
Cs -10.234639 11.290444 -12.100592
Cl -8.373796 9.237636 -9.900484
Cs -10.234639 11.290444 -7.700377
Cl -8.373796 9.237636 -5.500269
Cs -10.234639 11.290444 -3.300161
Cl -8.373796 9.237636 -1.100054
Cs 1.393865 3.079212 -2.497454
Cl 3.254709 1.026404 -0.297346
Cs 1.393865 3.079212 1.902761
Cl 3.254709 1.026404 4.102869
Cs 1.393865 3.079212 6.302977
Cl 3.254709 1.026404 8.503084
Cs -2.327822 7.184828 -6.897669
Cl -0.466978 5.132020 -4.697561
Cs -2.327822 7.184828 -2.497454
Cl -0.466978 5.132020 -0.297346
Cs -2.327822 7.184828 1.902761
Cl -0.466978 5.132020 4.102869
Cs -6.049509 11.290444 -11.297884
Cl -4.188665 9.237636 -9.097777
Cs -6.049509 11.290444 -6.897669
Cl -4.188665 9.237636 -4.697561
Cs -6.049509 11.290444 -2.497454
Cl -4.188665 9.237636 -0.297346
Cs 5.578996 3.079212 -1.694746
Cl 7.439839 1.026404 0.505361
Cs 5.578996 3.079212 2.705469
Cl 7.439839 1.026404 4.905577
Cs 5.578996 3.079212 7.105684
Cl 7.439839 1.026404 9.305792
Cs 1.857309 7.184828 -6.094961
Cl 3.718152 5.132020 -3.894854
Cs 1.857309 7.184828 -1.694746
Cl 3.718152 5.132020 0.505361
Cs 1.857309 7.184828 2.705469
Cl 3.718152 5.132020 4.905577
Cs -1.864378 11.290444 -10.495177
Cl -0.003535 9.237636 -8.295069
Cs -1.864378 11.290444 -6.094961
Cl -0.003535 9.237636 -3.894854
Cs -1.864378 11.290444 -1.694746
Cl -0.003535 9.237636 0.505361
