54
A
Cs -2.563738 3.076643 -3.470209
Cl -0.854579 1.025548 -1.156736
Cs -2.563738 3.076643 1.156736
Cl -0.854579 1.025548 3.470209
Cs -2.563738 3.076643 5.783682
Cl -0.854579 1.025548 8.097155
Cs -5.982055 7.178834 -8.097155
Cl -4.272897 5.127739 -5.783682
Cs -5.982055 7.178834 -3.470209
Cl -4.272897 5.127739 -1.156736
Cs -5.982055 7.178834 1.156736
Cl -4.272897 5.127739 3.470209
Cs -9.400373 11.281026 -12.724101
Cl -7.691214 9.229930 -10.410628
Cs -9.400373 11.281026 -8.097155
Cl -7.691214 9.229930 -5.783682
Cs -9.400373 11.281026 -3.470209
Cl -7.691214 9.229930 -1.156736
Cs 1.680088 3.076643 -2.040386
Cl 3.389247 1.025548 0.273086
Cs 1.680088 3.076643 2.586559
Cl 3.389247 1.025548 4.900032
Cs 1.680088 3.076643 7.213505
Cl 3.389247 1.025548 9.526978
Cs -1.738229 7.178834 -6.667332
Cl -0.029071 5.127739 -4.353859
Cs -1.738229 7.178834 -2.040386
Cl -0.029071 5.127739 0.273086
Cs -1.738229 7.178834 2.586559
Cl -0.029071 5.127739 4.900032
Cs -5.156547 11.281026 -11.294278
Cl -3.447388 9.229930 -8.980805
Cs -5.156547 11.281026 -6.667332
Cl -3.447388 9.229930 -4.353859
Cs -5.156547 11.281026 -2.040386
Cl -3.447388 9.229930 0.273086
Cs 5.923914 3.076643 -0.610564
Cl 7.633073 1.025548 1.702909
Cs 5.923914 3.076643 4.016382
Cl 7.633073 1.025548 6.329855
Cs 5.923914 3.076643 8.643328
Cl 7.633073 1.025548 10.956801
Cs 2.505597 7.178834 -5.237509
Cl 4.214755 5.127739 -2.924036
Cs 2.505597 7.178834 -0.610564
Cl 4.214755 5.127739 1.702909
Cs 2.505597 7.178834 4.016382
Cl 4.214755 5.127739 6.329855
Cs -0.912721 11.281026 -9.864455
Cl 0.796438 9.229930 -7.550982
Cs -0.912721 11.281026 -5.237509
Cl 0.796438 9.229930 -2.924036
Cs -0.912721 11.281026 -0.610564
Cl 0.796438 9.229930 1.702909
