54
A
Cs -2.636547 3.077465 -3.415794
Cl -0.878849 1.025822 -1.138598
Cs -2.636547 3.077465 1.138598
Cl -0.878849 1.025822 3.415794
Cs -2.636547 3.077465 5.692990
Cl -0.878849 1.025822 7.970186
Cs -6.151942 7.180752 -7.970186
Cl -4.394244 5.129109 -5.692990
Cs -6.151942 7.180752 -3.415794
Cl -4.394244 5.129109 -1.138598
Cs -6.151942 7.180752 1.138598
Cl -4.394244 5.129109 3.415794
Cs -9.667338 11.284039 -12.524578
Cl -7.909640 9.232396 -10.247382
Cs -9.667338 11.284039 -7.970186
Cl -7.909640 9.232396 -5.692990
Cs -9.667338 11.284039 -3.415794
Cl -7.909640 9.232396 -1.138598
Cs 1.588497 3.077465 -2.186648
Cl 3.346194 1.025822 0.090548
Cs 1.588497 3.077465 2.367744
Cl 3.346194 1.025822 4.644940
Cs 1.588497 3.077465 6.922136
Cl 3.346194 1.025822 9.199332
Cs -1.926899 7.180752 -6.741040
Cl -0.169201 5.129109 -4.463844
Cs -1.926899 7.180752 -2.186648
Cl -0.169201 5.129109 0.090548
Cs -1.926899 7.180752 2.367744
Cl -0.169201 5.129109 4.644940
Cs -5.442294 11.284039 -11.295432
Cl -3.684597 9.232396 -9.018236
Cs -5.442294 11.284039 -6.741040
Cl -3.684597 9.232396 -4.463844
Cs -5.442294 11.284039 -2.186648
Cl -3.684597 9.232396 0.090548
Cs 5.813540 3.077465 -0.957502
Cl 7.571238 1.025822 1.319694
Cs 5.813540 3.077465 3.596890
Cl 7.571238 1.025822 5.874086
Cs 5.813540 3.077465 8.151282
Cl 7.571238 1.025822 10.428478
Cs 2.298144 7.180752 -5.511894
Cl 4.055842 5.129109 -3.234698
Cs 2.298144 7.180752 -0.957502
Cl 4.055842 5.129109 1.319694
Cs 2.298144 7.180752 3.596890
Cl 4.055842 5.129109 5.874086
Cs -1.217251 11.284039 -10.066286
Cl 0.540447 9.232396 -7.789090
Cs -1.217251 11.284039 -5.511894
Cl 0.540447 9.232396 -3.234698
Cs -1.217251 11.284039 -0.957502
Cl 0.540447 9.232396 1.319694
