54
A
Cs -2.236099 3.072944 -3.715079
Cl -0.745366 1.024315 -1.238360
Cs -2.236099 3.072944 1.238360
Cl -0.745366 1.024315 3.715079
Cs -2.236099 3.072944 6.191798
Cl -0.745366 1.024315 8.668517
Cs -5.217564 7.170204 -8.668517
Cl -3.726831 5.121574 -6.191798
Cs -5.217564 7.170204 -3.715079
Cl -3.726831 5.121574 -1.238360
Cs -5.217564 7.170204 1.238360
Cl -3.726831 5.121574 3.715079
Cs -8.199029 11.267463 -13.621955
Cl -6.708296 9.218833 -11.145236
Cs -8.199029 11.267463 -8.668517
Cl -6.708296 9.218833 -6.191798
Cs -8.199029 11.267463 -3.715079
Cl -6.708296 9.218833 -1.238360
Cs 2.092249 3.072944 -6.335648
Cl 3.582981 1.024315 -3.858929
Cs 2.092249 3.072944 -1.382210
Cl 3.582981 1.024315 1.094510
Cs 2.092249 3.072944 3.571229
Cl 3.582981 1.024315 6.047948
Cs -0.889216 7.170204 -11.289086
Cl 0.601516 5.121574 -8.812367
Cs -0.889216 7.170204 -6.335648
Cl 0.601516 5.121574 -3.858929
Cs -0.889216 7.170204 -1.382210
Cl 0.601516 5.121574 1.094510
Cs -3.870681 11.267463 -16.242524
Cl -2.379949 9.218833 -13.765805
Cs -3.870681 11.267463 -11.289086
Cl -2.379949 9.218833 -8.812367
Cs -3.870681 11.267463 -6.335648
Cl -2.379949 9.218833 -3.858929
Cs 6.420596 3.072944 -8.956217
Cl 7.911329 1.024315 -6.479498
Cs 6.420596 3.072944 -4.002779
Cl 7.911329 1.024315 -1.526060
Cs 6.420596 3.072944 0.950660
Cl 7.911329 1.024315 3.427379
Cs 3.439131 7.170204 -13.909655
Cl 4.929864 5.121574 -11.432936
Cs 3.439131 7.170204 -8.956217
Cl 4.929864 5.121574 -6.479498
Cs 3.439131 7.170204 -4.002779
Cl 4.929864 5.121574 -1.526060
Cs 0.457666 11.267463 -18.863093
Cl 1.948399 9.218833 -16.386374
Cs 0.457666 11.267463 -13.909655
Cl 1.948399 9.218833 -11.432936
Cs 0.457666 11.267463 -8.956217
Cl 1.948399 9.218833 -6.479498
