54
A
Cs -3.046096 3.082089 -3.109708
Cl -1.015365 1.027363 -1.036569
Cs -3.046096 3.082089 1.036569
Cl -1.015365 1.027363 3.109708
Cs -3.046096 3.082089 5.182846
Cl -1.015365 1.027363 7.255985
Cs -7.107557 7.191541 -7.255985
Cl -5.076826 5.136815 -5.182846
Cs -7.107557 7.191541 -3.109708
Cl -5.076826 5.136815 -1.036569
Cs -7.107557 7.191541 1.036569
Cl -5.076826 5.136815 3.109708
Cs -11.169017 11.300993 -11.402261
Cl -9.138287 9.246267 -9.329123
Cs -11.169017 11.300993 -7.255985
Cl -9.138287 9.246267 -5.182846
Cs -11.169017 11.300993 -3.109708
Cl -9.138287 9.246267 -1.036569
Cs 1.073296 3.082089 -3.009369
Cl 3.104026 1.027363 -0.936231
Cs 1.073296 3.082089 1.136908
Cl 3.104026 1.027363 3.210046
Cs 1.073296 3.082089 5.283185
Cl 3.104026 1.027363 7.356323
Cs -2.988165 7.191541 -7.155646
Cl -0.957435 5.136815 -5.082508
Cs -2.988165 7.191541 -3.009369
Cl -0.957435 5.136815 -0.936231
Cs -2.988165 7.191541 1.136908
Cl -0.957435 5.136815 3.210046
Cs -7.049626 11.300993 -11.301923
Cl -5.018896 9.246267 -9.228785
Cs -7.049626 11.300993 -7.155646
Cl -5.018896 9.246267 -5.082508
Cs -7.049626 11.300993 -3.009369
Cl -5.018896 9.246267 -0.936231
Cs 5.192687 3.082089 -2.909031
Cl 7.223417 1.027363 -0.835892
Cs 5.192687 3.082089 1.237246
Cl 7.223417 1.027363 3.310385
Cs 5.192687 3.082089 5.383523
Cl 7.223417 1.027363 7.456661
Cs 1.131226 7.191541 -7.055308
Cl 3.161957 5.136815 -4.982169
Cs 1.131226 7.191541 -2.909031
Cl 3.161957 5.136815 -0.835892
Cs 1.131226 7.191541 1.237246
Cl 3.161957 5.136815 3.310385
Cs -2.930235 11.300993 -11.201585
Cl -0.899504 9.246267 -9.128446
Cs -2.930235 11.300993 -7.055308
Cl -0.899504 9.246267 -4.982169
Cs -2.930235 11.300993 -2.909031
Cl -0.899504 9.246267 -0.835892
