54
A
Cs -2.354413 3.074280 -3.626654
Cl -0.784804 1.024760 -1.208885
Cs -2.354413 3.074280 1.208885
Cl -0.784804 1.024760 3.626654
Cs -2.354413 3.074280 6.044423
Cl -0.784804 1.024760 8.462192
Cs -5.493630 7.173320 -8.462192
Cl -3.924022 5.123800 -6.044423
Cs -5.493630 7.173320 -3.626654
Cl -3.924022 5.123800 -1.208885
Cs -5.493630 7.173320 1.208885
Cl -3.924022 5.123800 3.626654
Cs -8.632848 11.272360 -13.297730
Cl -7.063239 9.222840 -10.879961
Cs -8.632848 11.272360 -8.462192
Cl -7.063239 9.222840 -6.044423
Cs -8.632848 11.272360 -3.626654
Cl -7.063239 9.222840 -1.208885
Cs 1.943413 3.074280 -6.455423
Cl 3.513022 1.024760 -4.037654
Cs 1.943413 3.074280 -1.619885
Cl 3.513022 1.024760 0.797885
Cs 1.943413 3.074280 3.215654
Cl 3.513022 1.024760 5.633423
Cs -1.195804 7.173320 -11.290961
Cl 0.373804 5.123800 -8.873192
Cs -1.195804 7.173320 -6.455423
Cl 0.373804 5.123800 -4.037654
Cs -1.195804 7.173320 -1.619885
Cl 0.373804 5.123800 0.797885
Cs -4.335022 11.272360 -16.126499
Cl -2.765413 9.222840 -13.708730
Cs -4.335022 11.272360 -11.290961
Cl -2.765413 9.222840 -8.873192
Cs -4.335022 11.272360 -6.455423
Cl -2.765413 9.222840 -4.037654
Cs 6.241239 3.074280 -9.284192
Cl 7.810848 1.024760 -6.866423
Cs 6.241239 3.074280 -4.448654
Cl 7.810848 1.024760 -2.030885
Cs 6.241239 3.074280 0.386885
Cl 7.810848 1.024760 2.804654
Cs 3.102022 7.173320 -14.119730
Cl 4.671630 5.123800 -11.701961
Cs 3.102022 7.173320 -9.284192
Cl 4.671630 5.123800 -6.866423
Cs 3.102022 7.173320 -4.448654
Cl 4.671630 5.123800 -2.030885
Cs -0.037196 11.272360 -18.955268
Cl 1.532413 9.222840 -16.537499
Cs -0.037196 11.272360 -14.119730
Cl 1.532413 9.222840 -11.701961
Cs -0.037196 11.272360 -9.284192
Cl 1.532413 9.222840 -6.866423
