54
A
Cs -2.308908 3.073766 -3.660663
Cl -0.769636 1.024589 -1.220221
Cs -2.308908 3.073766 1.220221
Cl -0.769636 1.024589 3.660663
Cs -2.308908 3.073766 6.101105
Cl -0.769636 1.024589 8.541547
Cs -5.387451 7.172121 -8.541547
Cl -3.848179 5.122944 -6.101105
Cs -5.387451 7.172121 -3.660663
Cl -3.848179 5.122944 -1.220221
Cs -5.387451 7.172121 1.220221
Cl -3.848179 5.122944 3.660663
Cs -8.465994 11.270477 -13.422432
Cl -6.926723 9.221299 -10.981989
Cs -8.465994 11.270477 -8.541547
Cl -6.926723 9.221299 -6.101105
Cs -8.465994 11.270477 -3.660663
Cl -6.926723 9.221299 -1.220221
Cs 2.000658 3.073766 -1.528471
Cl 3.539929 1.024589 0.911971
Cs 2.000658 3.073766 3.352413
Cl 3.539929 1.024589 5.792855
Cs 2.000658 3.073766 8.233297
Cl 3.539929 1.024589 10.673739
Cs -1.077886 7.172121 -6.409355
Cl 0.461386 5.122944 -3.968913
Cs -1.077886 7.172121 -1.528471
Cl 0.461386 5.122944 0.911971
Cs -1.077886 7.172121 3.352413
Cl 0.461386 5.122944 5.792855
Cs -4.156429 11.270477 -11.290239
Cl -2.617158 9.221299 -8.849797
Cs -4.156429 11.270477 -6.409355
Cl -2.617158 9.221299 -3.968913
Cs -4.156429 11.270477 -1.528471
Cl -2.617158 9.221299 0.911971
Cs 6.310223 3.073766 0.603721
Cl 7.849494 1.024589 3.044163
Cs 6.310223 3.073766 5.484605
Cl 7.849494 1.024589 7.925047
Cs 6.310223 3.073766 10.365489
Cl 7.849494 1.024589 12.805932
Cs 3.231679 7.172121 -4.277163
Cl 4.770951 5.122944 -1.836721
Cs 3.231679 7.172121 0.603721
Cl 4.770951 5.122944 3.044163
Cs 3.231679 7.172121 5.484605
Cl 4.770951 5.122944 7.925047
Cs 0.153136 11.270477 -9.158047
Cl 1.692408 9.221299 -6.717605
Cs 0.153136 11.270477 -4.277163
Cl 1.692408 9.221299 -1.836721
Cs 0.153136 11.270477 0.603721
Cl 1.692408 9.221299 3.044163
