54
A
Cs -2.581940 3.076849 -3.456606
Cl -0.860647 1.025616 -1.152202
Cs -2.581940 3.076849 1.152202
Cl -0.860647 1.025616 3.456606
Cs -2.581940 3.076849 5.761009
Cl -0.860647 1.025616 8.065413
Cs -6.024527 7.179314 -8.065413
Cl -4.303234 5.128081 -5.761009
Cs -6.024527 7.179314 -3.456606
Cl -4.303234 5.128081 -1.152202
Cs -6.024527 7.179314 1.152202
Cl -4.303234 5.128081 3.456606
Cs -9.467114 11.281779 -12.674220
Cl -7.745821 9.230546 -10.369817
Cs -9.467114 11.281779 -8.065413
Cl -7.745821 9.230546 -5.761009
Cs -9.467114 11.281779 -3.456606
Cl -7.745821 9.230546 -1.152202
Cs 1.657190 3.076849 -2.076952
Cl 3.378484 1.025616 0.227452
Cs 1.657190 3.076849 2.531856
Cl 3.378484 1.025616 4.836259
Cs 1.657190 3.076849 7.140663
Cl 3.378484 1.025616 9.445067
Cs -1.785397 7.179314 -6.685759
Cl -0.064103 5.128081 -4.381356
Cs -1.785397 7.179314 -2.076952
Cl -0.064103 5.128081 0.227452
Cs -1.785397 7.179314 2.531856
Cl -0.064103 5.128081 4.836259
Cs -5.227984 11.281779 -11.294567
Cl -3.506690 9.230546 -8.990163
Cs -5.227984 11.281779 -6.685759
Cl -3.506690 9.230546 -4.381356
Cs -5.227984 11.281779 -2.076952
Cl -3.506690 9.230546 0.227452
Cs 5.896321 3.076849 -0.697298
Cl 7.617614 1.025616 1.607106
Cs 5.896321 3.076849 3.911509
Cl 7.617614 1.025616 6.215913
Cs 5.896321 3.076849 8.520317
Cl 7.617614 1.025616 10.824720
Cs 2.453734 7.179314 -5.306106
Cl 4.175027 5.128081 -3.001702
Cs 2.453734 7.179314 -0.697298
Cl 4.175027 5.128081 1.607106
Cs 2.453734 7.179314 3.911509
Cl 4.175027 5.128081 6.215913
Cs -0.988853 11.281779 -9.914913
Cl 0.732440 9.230546 -7.610509
Cs -0.988853 11.281779 -5.306106
Cl 0.732440 9.230546 -3.001702
Cs -0.988853 11.281779 -0.697298
Cl 0.732440 9.230546 1.607106
