54
A
Cs -2.645648 3.077568 -3.408992
Cl -0.881883 1.025856 -1.136331
Cs -2.645648 3.077568 1.136331
Cl -0.881883 1.025856 3.408992
Cs -2.645648 3.077568 5.681654
Cl -0.881883 1.025856 7.954315
Cs -6.173178 7.180992 -7.954315
Cl -4.409413 5.129280 -5.681654
Cs -6.173178 7.180992 -3.408992
Cl -4.409413 5.129280 -1.136331
Cs -6.173178 7.180992 1.136331
Cl -4.409413 5.129280 3.408992
Cs -9.700709 11.284416 -12.499638
Cl -7.936943 9.232704 -10.226976
Cs -9.700709 11.284416 -7.954315
Cl -7.936943 9.232704 -5.681654
Cs -9.700709 11.284416 -3.408992
Cl -7.936943 9.232704 -1.136331
Cs 1.577048 3.077568 -2.204931
Cl 3.340813 1.025856 0.067731
Cs 1.577048 3.077568 2.340392
Cl 3.340813 1.025856 4.613054
Cs 1.577048 3.077568 6.885715
Cl 3.340813 1.025856 9.158376
Cs -1.950483 7.180992 -6.750254
Cl -0.186717 5.129280 -4.477592
Cs -1.950483 7.180992 -2.204931
Cl -0.186717 5.129280 0.067731
Cs -1.950483 7.180992 2.340392
Cl -0.186717 5.129280 4.613054
Cs -5.478013 11.284416 -11.295576
Cl -3.714248 9.232704 -9.022915
Cs -5.478013 11.284416 -6.750254
Cl -3.714248 9.232704 -4.477592
Cs -5.478013 11.284416 -2.204931
Cl -3.714248 9.232704 0.067731
Cs 5.799743 3.077568 -1.000869
Cl 7.563509 1.025856 1.271792
Cs 5.799743 3.077568 3.544454
Cl 7.563509 1.025856 5.817115
Cs 5.799743 3.077568 8.089776
Cl 7.563509 1.025856 10.362438
Cs 2.272213 7.180992 -5.546192
Cl 4.035978 5.129280 -3.273531
Cs 2.272213 7.180992 -1.000869
Cl 4.035978 5.129280 1.271792
Cs 2.272213 7.180992 3.544454
Cl 4.035978 5.129280 5.817115
Cs -1.255317 11.284416 -10.091515
Cl 0.508448 9.232704 -7.818854
Cs -1.255317 11.284416 -5.546192
Cl 0.508448 9.232704 -3.273531
Cs -1.255317 11.284416 -1.000869
Cl 0.508448 9.232704 1.271792
