54
A
Cs -2.500030 3.075924 -3.517823
Cl -0.833343 1.025308 -1.172608
Cs -2.500030 3.075924 1.172608
Cl -0.833343 1.025308 3.517823
Cs -2.500030 3.075924 5.863038
Cl -0.833343 1.025308 8.208253
Cs -5.833404 7.177156 -8.208253
Cl -4.166717 5.126540 -5.863038
Cs -5.833404 7.177156 -3.517823
Cl -4.166717 5.126540 -1.172608
Cs -5.833404 7.177156 1.172608
Cl -4.166717 5.126540 3.517823
Cs -9.166778 11.278388 -12.898684
Cl -7.500091 9.227772 -10.553469
Cs -9.166778 11.278388 -8.208253
Cl -7.500091 9.227772 -5.863038
Cs -9.166778 11.278388 -3.517823
Cl -7.500091 9.227772 -1.172608
Cs 1.760230 3.075924 -1.912408
Cl 3.426917 1.025308 0.432808
Cs 1.760230 3.075924 2.778023
Cl 3.426917 1.025308 5.123238
Cs 1.760230 3.075924 7.468453
Cl 3.426917 1.025308 9.813669
Cs -1.573143 7.177156 -6.602838
Cl 0.093543 5.126540 -4.257623
Cs -1.573143 7.177156 -1.912408
Cl 0.093543 5.126540 0.432808
Cs -1.573143 7.177156 2.778023
Cl 0.093543 5.126540 5.123238
Cs -4.906517 11.278388 -11.293269
Cl -3.239830 9.227772 -8.948053
Cs -4.906517 11.278388 -6.602838
Cl -3.239830 9.227772 -4.257623
Cs -4.906517 11.278388 -1.912408
Cl -3.239830 9.227772 0.432808
Cs 6.020491 3.075924 -0.306992
Cl 7.687178 1.025308 2.038223
Cs 6.020491 3.075924 4.383438
Cl 7.687178 1.025308 6.728653
Cs 6.020491 3.075924 9.073869
Cl 7.687178 1.025308 11.419084
Cs 2.687117 7.177156 -4.997423
Cl 4.353804 5.126540 -2.652208
Cs 2.687117 7.177156 -0.306992
Cl 4.353804 5.126540 2.038223
Cs 2.687117 7.177156 4.383438
Cl 4.353804 5.126540 6.728653
Cs -0.646257 11.278388 -9.687853
Cl 1.020430 9.227772 -7.342638
Cs -0.646257 11.278388 -4.997423
Cl 1.020430 9.227772 -2.652208
Cs -0.646257 11.278388 -0.306992
Cl 1.020430 9.227772 2.038223
