54
A
Cs -2.873175 3.080137 -3.238944
Cl -0.957725 1.026712 -1.079648
Cs -2.873175 3.080137 1.079648
Cl -0.957725 1.026712 3.238944
Cs -2.873175 3.080137 5.398240
Cl -0.957725 1.026712 7.557536
Cs -6.704075 7.186986 -7.557536
Cl -4.788625 5.133561 -5.398240
Cs -6.704075 7.186986 -3.238944
Cl -4.788625 5.133561 -1.079648
Cs -6.704075 7.186986 1.079648
Cl -4.788625 5.133561 3.238944
Cs -10.534975 11.293835 -11.876129
Cl -8.619525 9.240410 -9.716832
Cs -10.534975 11.293835 -7.557536
Cl -8.619525 9.240410 -5.398240
Cs -10.534975 11.293835 -3.238944
Cl -8.619525 9.240410 -1.079648
Cs 1.290825 3.080137 -2.661998
Cl 3.206275 1.026712 -0.502702
Cs 1.290825 3.080137 1.656594
Cl 3.206275 1.026712 3.815890
Cs 1.290825 3.080137 5.975186
Cl 3.206275 1.026712 8.134482
Cs -2.540075 7.186986 -6.980590
Cl -0.624625 5.133561 -4.821294
Cs -2.540075 7.186986 -2.661998
Cl -0.624625 5.133561 -0.502702
Cs -2.540075 7.186986 1.656594
Cl -0.624625 5.133561 3.815890
Cs -6.370975 11.293835 -11.299182
Cl -4.455525 9.240410 -9.139886
Cs -6.370975 11.293835 -6.980590
Cl -4.455525 9.240410 -4.821294
Cs -6.370975 11.293835 -2.661998
Cl -4.455525 9.240410 -0.502702
Cs 5.454825 3.080137 -2.085052
Cl 7.370275 1.026712 0.074244
Cs 5.454825 3.080137 2.233540
Cl 7.370275 1.026712 4.392836
Cs 5.454825 3.080137 6.552132
Cl 7.370275 1.026712 8.711429
Cs 1.623925 7.186986 -6.403644
Cl 3.539375 5.133561 -4.244348
Cs 1.623925 7.186986 -2.085052
Cl 3.539375 5.133561 0.074244
Cs 1.623925 7.186986 2.233540
Cl 3.539375 5.133561 4.392836
Cs -2.206975 11.293835 -10.722236
Cl -0.291525 9.240410 -8.562940
Cs -2.206975 11.293835 -6.403644
Cl -0.291525 9.240410 -4.244348
Cs -2.206975 11.293835 -2.085052
Cl -0.291525 9.240410 0.074244
