54
A
Cs -2.545536 3.076438 -3.483813
Cl -0.848512 1.025479 -1.161271
Cs -2.545536 3.076438 1.161271
Cl -0.848512 1.025479 3.483813
Cs -2.545536 3.076438 5.806355
Cl -0.848512 1.025479 8.128898
Cs -5.939584 7.178355 -8.128898
Cl -4.242560 5.127396 -5.806355
Cs -5.939584 7.178355 -3.483813
Cl -4.242560 5.127396 -1.161271
Cs -5.939584 7.178355 1.161271
Cl -4.242560 5.127396 3.483813
Cs -9.333631 11.280272 -12.773982
Cl -7.636607 9.229313 -10.451440
Cs -9.333631 11.280272 -8.128898
Cl -7.636607 9.229313 -5.806355
Cs -9.333631 11.280272 -3.483813
Cl -7.636607 9.229313 -1.161271
Cs 1.702986 3.076438 -6.648905
Cl 3.400010 1.025479 -4.326363
Cs 1.702986 3.076438 -2.003821
Cl 3.400010 1.025479 0.318721
Cs 1.702986 3.076438 2.641263
Cl 3.400010 1.025479 4.963805
Cs -1.691062 7.178355 -11.293990
Cl 0.005962 5.127396 -8.971448
Cs -1.691062 7.178355 -6.648905
Cl 0.005962 5.127396 -4.326363
Cs -1.691062 7.178355 -2.003821
Cl 0.005962 5.127396 0.318721
Cs -5.085110 11.280272 -15.939074
Cl -3.388086 9.229313 -13.616532
Cs -5.085110 11.280272 -11.293990
Cl -3.388086 9.229313 -8.971448
Cs -5.085110 11.280272 -6.648905
Cl -3.388086 9.229313 -4.326363
Cs 5.951507 3.076438 -9.813998
Cl 7.648531 1.025479 -7.491455
Cs 5.951507 3.076438 -5.168913
Cl 7.648531 1.025479 -2.846371
Cs 5.951507 3.076438 -0.523829
Cl 7.648531 1.025479 1.798713
Cs 2.557460 7.178355 -14.459082
Cl 4.254484 5.127396 -12.136540
Cs 2.557460 7.178355 -9.813998
Cl 4.254484 5.127396 -7.491455
Cs 2.557460 7.178355 -5.168913
Cl 4.254484 5.127396 -2.846371
Cs -0.836588 11.280272 -19.104166
Cl 0.860436 9.229313 -16.781624
Cs -0.836588 11.280272 -14.459082
Cl 0.860436 9.229313 -12.136540
Cs -0.836588 11.280272 -9.813998
Cl 0.860436 9.229313 -7.491455
