54
A
Cs -2.782164 3.079109 -3.306963
Cl -0.927388 1.026370 -1.102321
Cs -2.782164 3.079109 1.102321
Cl -0.927388 1.026370 3.306963
Cs -2.782164 3.079109 5.511606
Cl -0.927388 1.026370 7.716248
Cs -6.491716 7.184588 -7.716248
Cl -4.636940 5.131849 -5.511606
Cs -6.491716 7.184588 -3.306963
Cl -4.636940 5.131849 -1.102321
Cs -6.491716 7.184588 1.102321
Cl -4.636940 5.131849 3.306963
Cs -10.201268 11.290067 -12.125532
Cl -8.346492 9.237328 -9.920890
Cs -10.201268 11.290067 -7.716248
Cl -8.346492 9.237328 -5.511606
Cs -10.201268 11.290067 -3.306963
Cl -8.346492 9.237328 -1.102321
Cs 1.405314 3.079109 -2.479171
Cl 3.260090 1.026370 -0.274529
Cs 1.405314 3.079109 1.930113
Cl 3.260090 1.026370 4.134756
Cs 1.405314 3.079109 6.339398
Cl 3.260090 1.026370 8.544040
Cs -2.304238 7.184588 -6.888456
Cl -0.449462 5.131849 -4.683813
Cs -2.304238 7.184588 -2.479171
Cl -0.449462 5.131849 -0.274529
Cs -2.304238 7.184588 1.930113
Cl -0.449462 5.131849 4.134756
Cs -6.013790 11.290067 -11.297740
Cl -4.159014 9.237328 -9.093098
Cs -6.013790 11.290067 -6.888456
Cl -4.159014 9.237328 -4.683813
Cs -6.013790 11.290067 -2.479171
Cl -4.159014 9.237328 -0.274529
Cs 5.592792 3.079109 -1.651379
Cl 7.447568 1.026370 0.553263
Cs 5.592792 3.079109 2.757906
Cl 7.447568 1.026370 4.962548
Cs 5.592792 3.079109 7.167190
Cl 7.447568 1.026370 9.371832
Cs 1.883240 7.184588 -6.060663
Cl 3.738016 5.131849 -3.856021
Cs 1.883240 7.184588 -1.651379
Cl 3.738016 5.131849 0.553263
Cs 1.883240 7.184588 2.757906
Cl 3.738016 5.131849 4.962548
Cs -1.826312 11.290067 -10.469948
Cl 0.028464 9.237328 -8.265306
Cs -1.826312 11.290067 -6.060663
Cl 0.028464 9.237328 -3.856021
Cs -1.826312 11.290067 -1.651379
Cl 0.028464 9.237328 0.553263
