54
A
Cs -2.745760 3.078698 -3.334171
Cl -0.915253 1.026233 -1.111390
Cs -2.745760 3.078698 1.111390
Cl -0.915253 1.026233 3.334171
Cs -2.745760 3.078698 5.556952
Cl -0.915253 1.026233 7.779732
Cs -6.406773 7.183629 -7.779732
Cl -4.576266 5.131164 -5.556952
Cs -6.406773 7.183629 -3.334171
Cl -4.576266 5.131164 -1.111390
Cs -6.406773 7.183629 1.111390
Cl -4.576266 5.131164 3.334171
Cs -10.067786 11.288560 -12.225294
Cl -8.237279 9.236095 -10.002513
Cs -10.067786 11.288560 -7.779732
Cl -8.237279 9.236095 -5.556952
Cs -10.067786 11.288560 -3.334171
Cl -8.237279 9.236095 -1.111390
Cs 1.451110 3.078698 -2.406040
Cl 3.281616 1.026233 -0.183260
Cs 1.451110 3.078698 2.039521
Cl 3.281616 1.026233 4.262302
Cs 1.451110 3.078698 6.485082
Cl 3.281616 1.026233 8.707863
Cs -2.209903 7.183629 -6.851602
Cl -0.379397 5.131164 -4.628821
Cs -2.209903 7.183629 -2.406040
Cl -0.379397 5.131164 -0.183260
Cs -2.209903 7.183629 2.039521
Cl -0.379397 5.131164 4.262302
Cs -5.870916 11.288560 -11.297163
Cl -4.040410 9.236095 -9.074382
Cs -5.870916 11.288560 -6.851602
Cl -4.040410 9.236095 -4.628821
Cs -5.870916 11.288560 -2.406040
Cl -4.040410 9.236095 -0.183260
Cs 5.647979 3.078698 -1.477910
Cl 7.478486 1.026233 0.744871
Cs 5.647979 3.078698 2.967652
Cl 7.478486 1.026233 5.190432
Cs 5.647979 3.078698 7.413213
Cl 7.478486 1.026233 9.635994
Cs 1.986966 7.183629 -5.923471
Cl 3.817473 5.131164 -3.700690
Cs 1.986966 7.183629 -1.477910
Cl 3.817473 5.131164 0.744871
Cs 1.986966 7.183629 2.967652
Cl 3.817473 5.131164 5.190432
Cs -1.674047 11.288560 -10.369032
Cl 0.156460 9.236095 -8.146252
Cs -1.674047 11.288560 -5.923471
Cl 0.156460 9.236095 -3.700690
Cs -1.674047 11.288560 -1.477910
Cl 0.156460 9.236095 0.744871
