54
A
Cs -2.454525 3.075410 -3.551832
Cl -0.818175 1.025137 -1.183944
Cs -2.454525 3.075410 1.183944
Cl -0.818175 1.025137 3.551832
Cs -2.454525 3.075410 5.919721
Cl -0.818175 1.025137 8.287609
Cs -5.727225 7.175957 -8.287609
Cl -4.090875 5.125684 -5.919721
Cs -5.727225 7.175957 -3.551832
Cl -4.090875 5.125684 -1.183944
Cs -5.727225 7.175957 1.183944
Cl -4.090875 5.125684 3.551832
Cs -8.999925 11.276505 -13.023386
Cl -7.363575 9.226231 -10.655497
Cs -8.999925 11.276505 -8.287609
Cl -7.363575 9.226231 -5.919721
Cs -8.999925 11.276505 -3.551832
Cl -7.363575 9.226231 -1.183944
Cs 1.817475 3.075410 -6.556771
Cl 3.453825 1.025137 -4.188882
Cs 1.817475 3.075410 -1.820994
Cl 3.453825 1.025137 0.546894
Cs 1.817475 3.075410 2.914782
Cl 3.453825 1.025137 5.282671
Cs -1.455225 7.175957 -11.292547
Cl 0.181125 5.125684 -8.924659
Cs -1.455225 7.175957 -6.556771
Cl 0.181125 5.125684 -4.188882
Cs -1.455225 7.175957 -1.820994
Cl 0.181125 5.125684 0.546894
Cs -4.727925 11.276505 -16.028324
Cl -3.091575 9.226231 -13.660436
Cs -4.727925 11.276505 -11.292547
Cl -3.091575 9.226231 -8.924659
Cs -4.727925 11.276505 -6.556771
Cl -3.091575 9.226231 -4.188882
Cs 6.089475 3.075410 -9.561709
Cl 7.725825 1.025137 -7.193821
Cs 6.089475 3.075410 -4.825932
Cl 7.725825 1.025137 -2.458044
Cs 6.089475 3.075410 -0.090156
Cl 7.725825 1.025137 2.277732
Cs 2.816775 7.175957 -14.297486
Cl 4.453125 5.125684 -11.929597
Cs 2.816775 7.175957 -9.561709
Cl 4.453125 5.125684 -7.193821
Cs 2.816775 7.175957 -4.825932
Cl 4.453125 5.125684 -2.458044
Cs -0.455925 11.276505 -19.033262
Cl 1.180425 9.226231 -16.665374
Cs -0.455925 11.276505 -14.297486
Cl 1.180425 9.226231 -11.929597
Cs -0.455925 11.276505 -9.561709
Cl 1.180425 9.226231 -7.193821
