54
A
Cs -2.490929 3.075821 -3.524625
Cl -0.830310 1.025274 -1.174875
Cs -2.490929 3.075821 1.174875
Cl -0.830310 1.025274 3.524625
Cs -2.490929 3.075821 5.874375
Cl -0.830310 1.025274 8.224124
Cs -5.812168 7.176916 -8.224124
Cl -4.151549 5.126369 -5.874375
Cs -5.812168 7.176916 -3.524625
Cl -4.151549 5.126369 -1.174875
Cs -5.812168 7.176916 1.174875
Cl -4.151549 5.126369 3.524625
Cs -9.133407 11.278012 -12.923624
Cl -7.472788 9.227464 -10.573874
Cs -9.133407 11.278012 -8.224124
Cl -7.472788 9.227464 -5.874375
Cs -9.133407 11.278012 -3.524625
Cl -7.472788 9.227464 -1.174875
Cs 1.771679 3.075821 -1.894125
Cl 3.432299 1.025274 0.455625
Cs 1.771679 3.075821 2.805375
Cl 3.432299 1.025274 5.155125
Cs 1.771679 3.075821 7.504874
Cl 3.432299 1.025274 9.854624
Cs -1.549560 7.176916 -6.593625
Cl 0.111060 5.126369 -4.243875
Cs -1.549560 7.176916 -1.894125
Cl 0.111060 5.126369 0.455625
Cs -1.549560 7.176916 2.805375
Cl 0.111060 5.126369 5.155125
Cs -4.870799 11.278012 -11.293124
Cl -3.210179 9.227464 -8.943374
Cs -4.870799 11.278012 -6.593625
Cl -3.210179 9.227464 -4.243875
Cs -4.870799 11.278012 -1.894125
Cl -3.210179 9.227464 0.455625
Cs 6.034288 3.075821 -0.263625
Cl 7.694907 1.025274 2.086125
Cs 6.034288 3.075821 4.435875
Cl 7.694907 1.025274 6.785624
Cs 6.034288 3.075821 9.135374
Cl 7.694907 1.025274 11.485124
Cs 2.713049 7.176916 -4.963125
Cl 4.373668 5.126369 -2.613375
Cs 2.713049 7.176916 -0.263625
Cl 4.373668 5.126369 2.086125
Cs 2.713049 7.176916 4.435875
Cl 4.373668 5.126369 6.785624
Cs -0.608190 11.278012 -9.662624
Cl 1.052429 9.227464 -7.312875
Cs -0.608190 11.278012 -4.963125
Cl 1.052429 9.227464 -2.613375
Cs -0.608190 11.278012 -0.263625
Cl 1.052429 9.227464 2.086125
