54
A
Cs -2.845872 3.079829 -3.259350
Cl -0.948624 1.026610 -1.086450
Cs -2.845872 3.079829 1.086450
Cl -0.948624 1.026610 3.259350
Cs -2.845872 3.079829 5.432250
Cl -0.948624 1.026610 7.605150
Cs -6.640367 7.186267 -7.605150
Cl -4.743120 5.133048 -5.432250
Cs -6.640367 7.186267 -3.259350
Cl -4.743120 5.133048 -1.086450
Cs -6.640367 7.186267 1.086450
Cl -4.743120 5.133048 3.259350
Cs -10.434863 11.292705 -11.950950
Cl -8.537615 9.239486 -9.778050
Cs -10.434863 11.292705 -7.605150
Cl -8.537615 9.239486 -5.432250
Cs -10.434863 11.292705 -3.259350
Cl -8.537615 9.239486 -1.086450
Cs 1.325172 3.079829 -6.952950
Cl 3.222420 1.026610 -4.780050
Cs 1.325172 3.079829 -2.607150
Cl 3.222420 1.026610 -0.434250
Cs 1.325172 3.079829 1.738650
Cl 3.222420 1.026610 3.911550
Cs -2.469324 7.186267 -11.298750
Cl -0.572076 5.133048 -9.125850
Cs -2.469324 7.186267 -6.952950
Cl -0.572076 5.133048 -4.780050
Cs -2.469324 7.186267 -2.607150
Cl -0.572076 5.133048 -0.434250
Cs -6.263820 11.292705 -15.644550
Cl -4.366572 9.239486 -13.471650
Cs -6.263820 11.292705 -11.298750
Cl -4.366572 9.239486 -9.125850
Cs -6.263820 11.292705 -6.952950
Cl -4.366572 9.239486 -4.780050
Cs 5.496215 3.079829 -10.646550
Cl 7.393463 1.026610 -8.473650
Cs 5.496215 3.079829 -6.300750
Cl 7.393463 1.026610 -4.127850
Cs 5.496215 3.079829 -1.954950
Cl 7.393463 1.026610 0.217950
Cs 1.701720 7.186267 -14.992350
Cl 3.598967 5.133048 -12.819450
Cs 1.701720 7.186267 -10.646550
Cl 3.598967 5.133048 -8.473650
Cs 1.701720 7.186267 -6.300750
Cl 3.598967 5.133048 -4.127850
Cs -2.092776 11.292705 -19.338150
Cl -0.195528 9.239486 -17.165250
Cs -2.092776 11.292705 -14.992350
Cl -0.195528 9.239486 -12.819450
Cs -2.092776 11.292705 -10.646550
Cl -0.195528 9.239486 -8.473650
