54
A
Cs -2.682052 3.077979 -3.381784
Cl -0.894017 1.025993 -1.127261
Cs -2.682052 3.077979 1.127261
Cl -0.894017 1.025993 3.381784
Cs -2.682052 3.077979 5.636307
Cl -0.894017 1.025993 7.890830
Cs -6.258122 7.181951 -7.890830
Cl -4.470087 5.129965 -5.636307
Cs -6.258122 7.181951 -3.381784
Cl -4.470087 5.129965 -1.127261
Cs -6.258122 7.181951 1.127261
Cl -4.470087 5.129965 3.381784
Cs -9.834191 11.285923 -12.399876
Cl -8.046156 9.233937 -10.145353
Cs -9.834191 11.285923 -7.890830
Cl -8.046156 9.233937 -5.636307
Cs -9.834191 11.285923 -3.381784
Cl -8.046156 9.233937 -1.127261
Cs 1.531252 3.077979 -6.787107
Cl 3.319287 1.025993 -4.532584
Cs 1.531252 3.077979 -2.278061
Cl 3.319287 1.025993 -0.023539
Cs 1.531252 3.077979 2.230984
Cl 3.319287 1.025993 4.485507
Cs -2.044817 7.181951 -11.296153
Cl -0.256783 5.129965 -9.041630
Cs -2.044817 7.181951 -6.787107
Cl -0.256783 5.129965 -4.532584
Cs -2.044817 7.181951 -2.278061
Cl -0.256783 5.129965 -0.023539
Cs -5.620887 11.285923 -15.805199
Cl -3.832852 9.233937 -13.550676
Cs -5.620887 11.285923 -11.296153
Cl -3.832852 9.233937 -9.041630
Cs -5.620887 11.285923 -6.787107
Cl -3.832852 9.233937 -4.532584
Cs 5.744556 3.077979 -10.192430
Cl 7.532591 1.025993 -7.937907
Cs 5.744556 3.077979 -5.683384
Cl 7.532591 1.025993 -3.428861
Cs 5.744556 3.077979 -1.174339
Cl 7.532591 1.025993 1.080184
Cs 2.168487 7.181951 -14.701476
Cl 3.956522 5.129965 -12.446953
Cs 2.168487 7.181951 -10.192430
Cl 3.956522 5.129965 -7.937907
Cs 2.168487 7.181951 -5.683384
Cl 3.956522 5.129965 -3.428861
Cs -1.407583 11.285923 -19.210522
Cl 0.380452 9.233937 -16.955999
Cs -1.407583 11.285923 -14.701476
Cl 0.380452 9.233937 -12.446953
Cs -1.407583 11.285923 -10.192430
Cl 0.380452 9.233937 -7.937907
