54
A
Cs -2.299806 3.073664 -3.667465
Cl -0.766602 1.024555 -1.222488
Cs -2.299806 3.073664 1.222488
Cl -0.766602 1.024555 3.667465
Cs -2.299806 3.073664 6.112442
Cl -0.766602 1.024555 8.557419
Cs -5.366215 7.171882 -8.557419
Cl -3.833011 5.122773 -6.112442
Cs -5.366215 7.171882 -3.667465
Cl -3.833011 5.122773 -1.222488
Cs -5.366215 7.171882 1.222488
Cl -3.833011 5.122773 3.667465
Cs -8.432624 11.270100 -13.447372
Cl -6.899419 9.220991 -11.002395
Cs -8.432624 11.270100 -8.557419
Cl -6.899419 9.220991 -6.112442
Cs -8.432624 11.270100 -3.667465
Cl -6.899419 9.220991 -1.222488
Cs 2.012106 3.073664 -1.510188
Cl 3.545311 1.024555 0.934788
Cs 2.012106 3.073664 3.379765
Cl 3.545311 1.024555 5.824742
Cs 2.012106 3.073664 8.269719
Cl 3.545311 1.024555 10.714695
Cs -1.054302 7.171882 -6.400142
Cl 0.478902 5.122773 -3.955165
Cs -1.054302 7.171882 -1.510188
Cl 0.478902 5.122773 0.934788
Cs -1.054302 7.171882 3.379765
Cl 0.478902 5.122773 5.824742
Cs -4.120711 11.270100 -11.290095
Cl -2.587506 9.220991 -8.845119
Cs -4.120711 11.270100 -6.400142
Cl -2.587506 9.220991 -3.955165
Cs -4.120711 11.270100 -1.510188
Cl -2.587506 9.220991 0.934788
Cs 6.324019 3.073664 0.647088
Cl 7.857224 1.024555 3.092065
Cs 6.324019 3.073664 5.537042
Cl 7.857224 1.024555 7.982019
Cs 6.324019 3.073664 10.426995
Cl 7.857224 1.024555 12.871972
Cs 3.257611 7.171882 -4.242865
Cl 4.790815 5.122773 -1.797888
Cs 3.257611 7.171882 0.647088
Cl 4.790815 5.122773 3.092065
Cs 3.257611 7.171882 5.537042
Cl 4.790815 5.122773 7.982019
Cs 0.191202 11.270100 -9.132819
Cl 1.724406 9.220991 -6.687842
Cs 0.191202 11.270100 -4.242865
Cl 1.724406 9.220991 -1.797888
Cs 0.191202 11.270100 0.647088
Cl 1.724406 9.220991 3.092065
