54
A
Cs -2.900478 3.080445 -3.218538
Cl -0.966826 1.026815 -1.072846
Cs -2.900478 3.080445 1.072846
Cl -0.966826 1.026815 3.218538
Cs -2.900478 3.080445 5.364231
Cl -0.966826 1.026815 7.509923
Cs -6.767783 7.187705 -7.509923
Cl -4.834130 5.134075 -5.364231
Cs -6.767783 7.187705 -3.218538
Cl -4.834130 5.134075 -1.072846
Cs -6.767783 7.187705 1.072846
Cl -4.834130 5.134075 3.218538
Cs -10.635087 11.294965 -11.801307
Cl -8.701435 9.241335 -9.655615
Cs -10.635087 11.294965 -7.509923
Cl -8.701435 9.241335 -5.364231
Cs -10.635087 11.294965 -3.218538
Cl -8.701435 9.241335 -1.072846
Cs 1.256478 3.080445 -7.008231
Cl 3.190130 1.026815 -4.862538
Cs 1.256478 3.080445 -2.716846
Cl 3.190130 1.026815 -0.571154
Cs 1.256478 3.080445 1.574538
Cl 3.190130 1.026815 3.720231
Cs -2.610826 7.187705 -11.299615
Cl -0.677174 5.134075 -9.153923
Cs -2.610826 7.187705 -7.008231
Cl -0.677174 5.134075 -4.862538
Cs -2.610826 7.187705 -2.716846
Cl -0.677174 5.134075 -0.571154
Cs -6.478130 11.294965 -15.591000
Cl -4.544478 9.241335 -13.445307
Cs -6.478130 11.294965 -11.299615
Cl -4.544478 9.241335 -9.153923
Cs -6.478130 11.294965 -7.008231
Cl -4.544478 9.241335 -4.862538
Cs 5.413435 3.080445 -10.797923
Cl 7.347087 1.026815 -8.652231
Cs 5.413435 3.080445 -6.506538
Cl 7.347087 1.026815 -4.360846
Cs 5.413435 3.080445 -2.215154
Cl 7.347087 1.026815 -0.069462
Cs 1.546130 7.187705 -15.089307
Cl 3.479783 5.134075 -12.943615
Cs 1.546130 7.187705 -10.797923
Cl 3.479783 5.134075 -8.652231
Cs 1.546130 7.187705 -6.506538
Cl 3.479783 5.134075 -4.360846
Cs -2.321174 11.294965 -19.380692
Cl -0.387522 9.241335 -17.235000
Cs -2.321174 11.294965 -15.089307
Cl -0.387522 9.241335 -12.943615
Cs -2.321174 11.294965 -10.797923
Cl -0.387522 9.241335 -8.652231
