54
A
Cs -2.527334 3.076232 -3.497417
Cl -0.842445 1.025411 -1.165806
Cs -2.527334 3.076232 1.165806
Cl -0.842445 1.025411 3.497417
Cs -2.527334 3.076232 5.829028
Cl -0.842445 1.025411 8.160640
Cs -5.897112 7.177875 -8.160640
Cl -4.212223 5.127054 -5.829028
Cs -5.897112 7.177875 -3.497417
Cl -4.212223 5.127054 -1.165806
Cs -5.897112 7.177875 1.165806
Cl -4.212223 5.127054 3.497417
Cs -9.266890 11.279519 -12.823863
Cl -7.582001 9.228697 -10.492251
Cs -9.266890 11.279519 -8.160640
Cl -7.582001 9.228697 -5.829028
Cs -9.266890 11.279519 -3.497417
Cl -7.582001 9.228697 -1.165806
Cs 1.725884 3.076232 -6.630478
Cl 3.410773 1.025411 -4.298867
Cs 1.725884 3.076232 -1.967256
Cl 3.410773 1.025411 0.364356
Cs 1.725884 3.076232 2.695967
Cl 3.410773 1.025411 5.027578
Cs -1.643895 7.177875 -11.293701
Cl 0.040995 5.127054 -8.962090
Cs -1.643895 7.177875 -6.630478
Cl 0.040995 5.127054 -4.298867
Cs -1.643895 7.177875 -1.967256
Cl 0.040995 5.127054 0.364356
Cs -5.013673 11.279519 -15.956924
Cl -3.328784 9.228697 -13.625313
Cs -5.013673 11.279519 -11.293701
Cl -3.328784 9.228697 -8.962090
Cs -5.013673 11.279519 -6.630478
Cl -3.328784 9.228697 -4.298867
Cs 5.979101 3.076232 -9.763540
Cl 7.663990 1.025411 -7.431928
Cs 5.979101 3.076232 -5.100317
Cl 7.663990 1.025411 -2.768706
Cs 5.979101 3.076232 -0.437094
Cl 7.663990 1.025411 1.894517
Cs 2.609323 7.177875 -14.426763
Cl 4.294212 5.127054 -12.095151
Cs 2.609323 7.177875 -9.763540
Cl 4.294212 5.127054 -7.431928
Cs 2.609323 7.177875 -5.100317
Cl 4.294212 5.127054 -2.768706
Cs -0.760455 11.279519 -19.089985
Cl 0.924434 9.228697 -16.758374
Cs -0.760455 11.279519 -14.426763
Cl 0.924434 9.228697 -12.095151
Cs -0.760455 11.279519 -9.763540
Cl 0.924434 9.228697 -7.431928
