54
A
Cs -2.927782 3.080753 -3.198133
Cl -0.975927 1.026918 -1.066044
Cs -2.927782 3.080753 1.066044
Cl -0.975927 1.026918 3.198133
Cs -2.927782 3.080753 5.330221
Cl -0.975927 1.026918 7.462309
Cs -6.831490 7.188424 -7.462309
Cl -4.879636 5.134589 -5.330221
Cs -6.831490 7.188424 -3.198133
Cl -4.879636 5.134589 -1.066044
Cs -6.831490 7.188424 1.066044
Cl -4.879636 5.134589 3.198133
Cs -10.735199 11.296095 -11.726486
Cl -8.783345 9.242260 -9.594398
Cs -10.735199 11.296095 -7.462309
Cl -8.783345 9.242260 -5.330221
Cs -10.735199 11.296095 -3.198133
Cl -8.783345 9.242260 -1.066044
Cs 1.222132 3.080753 -7.035871
Cl 3.173986 1.026918 -4.903783
Cs 1.222132 3.080753 -2.771694
Cl 3.173986 1.026918 -0.639606
Cs 1.222132 3.080753 1.492483
Cl 3.173986 1.026918 3.624571
Cs -2.681577 7.188424 -11.300048
Cl -0.729723 5.134589 -9.167959
Cs -2.681577 7.188424 -7.035871
Cl -0.729723 5.134589 -4.903783
Cs -2.681577 7.188424 -2.771694
Cl -0.729723 5.134589 -0.639606
Cs -6.585286 11.296095 -15.564225
Cl -4.633432 9.242260 -13.432136
Cs -6.585286 11.296095 -11.300048
Cl -4.633432 9.242260 -9.167959
Cs -6.585286 11.296095 -7.035871
Cl -4.633432 9.242260 -4.903783
Cs 5.372045 3.080753 -10.873609
Cl 7.323899 1.026918 -8.741521
Cs 5.372045 3.080753 -6.609433
Cl 7.323899 1.026918 -4.477344
Cs 5.372045 3.080753 -2.345256
Cl 7.323899 1.026918 -0.213167
Cs 1.468336 7.188424 -15.137786
Cl 3.420190 5.134589 -13.005698
Cs 1.468336 7.188424 -10.873609
Cl 3.420190 5.134589 -8.741521
Cs 1.468336 7.188424 -6.609433
Cl 3.420190 5.134589 -4.477344
Cs -2.435373 11.296095 -19.401963
Cl -0.483518 9.242260 -17.269875
Cs -2.435373 11.296095 -15.137786
Cl -0.483518 9.242260 -13.005698
Cs -2.435373 11.296095 -10.873609
Cl -0.483518 9.242260 -8.741521
