54
A
Cs 0.000000 0.000000 0.000000
Cl -1.448261 2.048150 2.508461
Cs -0.000000 0.000000 5.016923
Cl -1.448261 2.048150 7.525384
Cs -0.000000 0.000000 10.033845
Cl -1.448261 2.048150 12.542307
Cs -2.896522 4.096300 5.016923
Cl -4.344782 6.144450 7.525384
Cs -2.896522 4.096300 10.033845
Cl -4.344782 6.144450 12.542307
Cs -2.896522 4.096300 15.050768
Cl -4.344782 6.144450 17.559229
Cs -5.793043 8.192600 10.033845
Cl -7.241304 10.240750 12.542307
Cs -5.793043 8.192600 15.050768
Cl -7.241304 10.240750 17.559229
Cs -5.793043 8.192600 20.067690
Cl -7.241304 10.240750 22.576152
Cs 4.344782 0.000000 2.508461
Cl 2.896522 2.048150 5.016923
Cs 4.344782 0.000000 7.525384
Cl 2.896522 2.048150 10.033845
Cs 4.344782 0.000000 12.542307
Cl 2.896522 2.048150 15.050768
Cs 1.448261 4.096300 7.525384
Cl -0.000000 6.144450 10.033845
Cs 1.448261 4.096300 12.542307
Cl -0.000000 6.144450 15.050768
Cs 1.448261 4.096300 17.559229
Cl -0.000000 6.144450 20.067690
Cs -1.448261 8.192600 12.542307
Cl -2.896522 10.240750 15.050768
Cs -1.448261 8.192600 17.559229
Cl -2.896522 10.240750 20.067690
Cs -1.448261 8.192600 22.576152
Cl -2.896522 10.240750 25.084613
Cs 8.689565 0.000000 5.016923
Cl 7.241304 2.048150 7.525384
Cs 8.689565 0.000000 10.033845
Cl 7.241304 2.048150 12.542307
Cs 8.689565 0.000000 15.050768
Cl 7.241304 2.048150 17.559229
Cs 5.793043 4.096300 10.033845
Cl 4.344782 6.144450 12.542307
Cs 5.793043 4.096300 15.050768
Cl 4.344782 6.144450 17.559229
Cs 5.793043 4.096300 20.067690
Cl 4.344782 6.144450 22.576152
Cs 2.896522 8.192600 15.050768
Cl 1.448261 10.240750 17.559229
Cs 2.896522 8.192600 20.067690
Cl 1.448261 10.240750 22.576152
Cs 2.896522 8.192600 25.084613
Cl 1.448261 10.240750 27.593074
