54
A
Cs -2.864074 3.080034 3.245746
Cl -0.954691 1.026678 1.081915
Cs -2.864074 3.080034 7.573407
Cl -0.954691 1.026678 5.409577
Cs -2.864074 3.080034 11.901069
Cl -0.954691 1.026678 9.737238
Cs -6.682839 7.186746 7.573407
Cl -4.773456 5.133390 5.409577
Cs -6.682839 7.186746 11.901069
Cl -4.773456 5.133390 9.737238
Cs -6.682839 7.186746 16.228730
Cl -4.773456 5.133390 14.064900
Cs -10.501604 11.293458 11.901069
Cl -8.592222 9.240102 9.737238
Cs -10.501604 11.293458 16.228730
Cl -8.592222 9.240102 14.064900
Cs -10.501604 11.293458 20.556392
Cl -8.592222 9.240102 18.392561
Cs 1.302274 3.080034 6.971377
Cl 3.211656 1.026678 4.807546
Cs 1.302274 3.080034 11.299038
Cl 3.211656 1.026678 9.135207
Cs 1.302274 3.080034 15.626700
Cl 3.211656 1.026678 13.462869
Cs -2.516491 7.186746 11.299038
Cl -0.607109 5.133390 9.135207
Cs -2.516491 7.186746 15.626700
Cl -0.607109 5.133390 13.462869
Cs -2.516491 7.186746 19.954361
Cl -0.607109 5.133390 17.790530
Cs -6.335256 11.293458 15.626700
Cl -4.425874 9.240102 13.462869
Cs -6.335256 11.293458 19.954361
Cl -4.425874 9.240102 17.790530
Cs -6.335256 11.293458 24.282022
Cl -4.425874 9.240102 22.118192
Cs 5.468622 3.080034 10.697007
Cl 7.378004 1.026678 8.533177
Cs 5.468622 3.080034 15.024669
Cl 7.378004 1.026678 12.860838
Cs 5.468622 3.080034 19.352330
Cl 7.378004 1.026678 17.188500
Cs 1.649856 7.186746 15.024669
Cl 3.559239 5.133390 12.860838
Cs 1.649856 7.186746 19.352330
Cl 3.559239 5.133390 17.188500
Cs 1.649856 7.186746 23.679992
Cl 3.559239 5.133390 21.516161
Cs -2.168909 11.293458 19.352330
Cl -0.259526 9.240102 17.188500
Cs -2.168909 11.293458 23.679992
Cl -0.259526 9.240102 21.516161
Cs -2.168909 11.293458 28.007653
Cl -0.259526 9.240102 25.843822
