54
A
Cs -2.936883 3.080856 3.191331
Cl -0.978961 1.026952 1.063777
Cs -2.936883 3.080856 7.446438
Cl -0.978961 1.026952 5.318885
Cs -2.936883 3.080856 11.701546
Cl -0.978961 1.026952 9.573992
Cs -6.852726 7.188664 7.446438
Cl -4.894804 5.134760 5.318885
Cs -6.852726 7.188664 11.701546
Cl -4.894804 5.134760 9.573992
Cs -6.852726 7.188664 15.956654
Cl -4.894804 5.134760 13.829100
Cs -10.768570 11.296472 11.701546
Cl -8.810648 9.242568 9.573992
Cs -10.768570 11.296472 15.956654
Cl -8.810648 9.242568 13.829100
Cs -10.768570 11.296472 20.211761
Cl -8.810648 9.242568 18.084207
Cs 1.210683 3.080856 7.045085
Cl 3.168604 1.026952 4.917531
Cs 1.210683 3.080856 11.300192
Cl 3.168604 1.026952 9.172638
Cs 1.210683 3.080856 15.555300
Cl 3.168604 1.026952 13.427746
Cs -2.705161 7.188664 11.300192
Cl -0.747239 5.134760 9.172638
Cs -2.705161 7.188664 15.555300
Cl -0.747239 5.134760 13.427746
Cs -2.705161 7.188664 19.810407
Cl -0.747239 5.134760 17.682854
Cs -6.621004 11.296472 15.555300
Cl -4.663083 9.242568 13.427746
Cs -6.621004 11.296472 19.810407
Cl -4.663083 9.242568 17.682854
Cs -6.621004 11.296472 24.065515
Cl -4.663083 9.242568 21.937961
Cs 5.358248 3.080856 10.898838
Cl 7.316170 1.026952 8.771285
Cs 5.358248 3.080856 15.153946
Cl 7.316170 1.026952 13.026392
Cs 5.358248 3.080856 19.409054
Cl 7.316170 1.026952 17.281500
Cs 1.442404 7.188664 15.153946
Cl 3.400326 5.134760 13.026392
Cs 1.442404 7.188664 19.409054
Cl 3.400326 5.134760 17.281500
Cs 1.442404 7.188664 23.664161
Cl 3.400326 5.134760 21.536607
Cs -2.473439 11.296472 19.409054
Cl -0.515517 9.242568 17.281500
Cs -2.473439 11.296472 23.664161
Cl -0.515517 9.242568 21.536607
Cs -2.473439 11.296472 27.919269
Cl -0.515517 9.242568 25.791715
