54
A
Cs -2.836771 3.079726 3.266152
Cl -0.945590 1.026575 1.088717
Cs -2.836771 3.079726 7.621021
Cl -0.945590 1.026575 5.443586
Cs -2.836771 3.079726 11.975890
Cl -0.945590 1.026575 9.798455
Cs -6.619131 7.186027 7.621021
Cl -4.727951 5.132876 5.443586
Cs -6.619131 7.186027 11.975890
Cl -4.727951 5.132876 9.798455
Cs -6.619131 7.186027 16.330759
Cl -4.727951 5.132876 14.153325
Cs -10.401492 11.292328 11.975890
Cl -8.510312 9.239177 9.798455
Cs -10.401492 11.292328 16.330759
Cl -8.510312 9.239177 14.153325
Cs -10.401492 11.292328 20.685628
Cl -8.510312 9.239177 18.508194
Cs 1.336621 3.079726 6.943736
Cl 3.227801 1.026575 4.766302
Cs 1.336621 3.079726 11.298605
Cl 3.227801 1.026575 9.121171
Cs 1.336621 3.079726 15.653475
Cl 3.227801 1.026575 13.476040
Cs -2.445740 7.186027 11.298605
Cl -0.554560 5.132876 9.121171
Cs -2.445740 7.186027 15.653475
Cl -0.554560 5.132876 13.476040
Cs -2.445740 7.186027 20.008344
Cl -0.554560 5.132876 17.830909
Cs -6.228101 11.292328 15.653475
Cl -4.336921 9.239177 13.476040
Cs -6.228101 11.292328 20.008344
Cl -4.336921 9.239177 17.830909
Cs -6.228101 11.292328 24.363213
Cl -4.336921 9.239177 22.185778
Cs 5.510012 3.079726 10.621321
Cl 7.401192 1.026575 8.443886
Cs 5.510012 3.079726 14.976190
Cl 7.401192 1.026575 12.798755
Cs 5.510012 3.079726 19.331059
Cl 7.401192 1.026575 17.153625
Cs 1.727651 7.186027 14.976190
Cl 3.618831 5.132876 12.798755
Cs 1.727651 7.186027 19.331059
Cl 3.618831 5.132876 17.153625
Cs 1.727651 7.186027 23.685928
Cl 3.618831 5.132876 21.508494
Cs -2.054710 11.292328 19.331059
Cl -0.163529 9.239177 17.153625
Cs -2.054710 11.292328 23.685928
Cl -0.163529 9.239177 21.508494
Cs -2.054710 11.292328 28.040797
Cl -0.163529 9.239177 25.863363
