54
A
Cs -2.527334 3.076232 3.497417
Cl -0.842445 1.025411 1.165806
Cs -2.527334 3.076232 8.160640
Cl -0.842445 1.025411 5.829028
Cs -2.527334 3.076232 12.823863
Cl -0.842445 1.025411 10.492251
Cs -5.897112 7.177875 8.160640
Cl -4.212223 5.127054 5.829028
Cs -5.897112 7.177875 12.823863
Cl -4.212223 5.127054 10.492251
Cs -5.897112 7.177875 17.487085
Cl -4.212223 5.127054 15.155474
Cs -9.266890 11.279519 12.823863
Cl -7.582001 9.228697 10.492251
Cs -9.266890 11.279519 17.487085
Cl -7.582001 9.228697 15.155474
Cs -9.266890 11.279519 22.150308
Cl -7.582001 9.228697 19.818697
Cs 1.725884 3.076232 6.630478
Cl 3.410773 1.025411 4.298867
Cs 1.725884 3.076232 11.293701
Cl 3.410773 1.025411 8.962090
Cs 1.725884 3.076232 15.956924
Cl 3.410773 1.025411 13.625313
Cs -1.643895 7.177875 11.293701
Cl 0.040995 5.127054 8.962090
Cs -1.643895 7.177875 15.956924
Cl 0.040995 5.127054 13.625313
Cs -1.643895 7.177875 20.620147
Cl 0.040995 5.127054 18.288535
Cs -5.013673 11.279519 15.956924
Cl -3.328784 9.228697 13.625313
Cs -5.013673 11.279519 20.620147
Cl -3.328784 9.228697 18.288535
Cs -5.013673 11.279519 25.283370
Cl -3.328784 9.228697 22.951758
Cs 5.979101 3.076232 9.763540
Cl 7.663990 1.025411 7.431928
Cs 5.979101 3.076232 14.426763
Cl 7.663990 1.025411 12.095151
Cs 5.979101 3.076232 19.089985
Cl 7.663990 1.025411 16.758374
Cs 2.609323 7.177875 14.426763
Cl 4.294212 5.127054 12.095151
Cs 2.609323 7.177875 19.089985
Cl 4.294212 5.127054 16.758374
Cs 2.609323 7.177875 23.753208
Cl 4.294212 5.127054 21.421597
Cs -0.760455 11.279519 19.089985
Cl 0.924434 9.228697 16.758374
Cs -0.760455 11.279519 23.753208
Cl 0.924434 9.228697 21.421597
Cs -0.760455 11.279519 28.416431
Cl 0.924434 9.228697 26.084820
