54
A
Cs -2.472727 3.075616 3.538229
Cl -0.824242 1.025205 1.179410
Cs -2.472727 3.075616 8.255867
Cl -0.824242 1.025205 5.897048
Cs -2.472727 3.075616 12.973505
Cl -0.824242 1.025205 10.614686
Cs -5.769697 7.176437 8.255867
Cl -4.121212 5.126026 5.897048
Cs -5.769697 7.176437 12.973505
Cl -4.121212 5.126026 10.614686
Cs -5.769697 7.176437 17.691143
Cl -4.121212 5.126026 15.332324
Cs -9.066666 11.277258 12.973505
Cl -7.418181 9.226847 10.614686
Cs -9.066666 11.277258 17.691143
Cl -7.418181 9.226847 15.332324
Cs -9.066666 11.277258 22.408781
Cl -7.418181 9.226847 20.049962
Cs 1.794577 3.075616 6.575198
Cl 3.443062 1.025205 4.216379
Cs 1.794577 3.075616 11.292836
Cl 3.443062 1.025205 8.934017
Cs 1.794577 3.075616 16.010474
Cl 3.443062 1.025205 13.651655
Cs -1.502392 7.176437 11.292836
Cl 0.146092 5.126026 8.934017
Cs -1.502392 7.176437 16.010474
Cl 0.146092 5.126026 13.651655
Cs -1.502392 7.176437 20.728112
Cl 0.146092 5.126026 18.369293
Cs -4.799362 11.277258 16.010474
Cl -3.150877 9.226847 13.651655
Cs -4.799362 11.277258 20.728112
Cl -3.150877 9.226847 18.369293
Cs -4.799362 11.277258 25.445750
Cl -3.150877 9.226847 23.086931
Cs 6.061881 3.075616 9.612167
Cl 7.710366 1.025205 7.253348
Cs 6.061881 3.075616 14.329805
Cl 7.710366 1.025205 11.970986
Cs 6.061881 3.075616 19.047443
Cl 7.710366 1.025205 16.688624
Cs 2.764912 7.176437 14.329805
Cl 4.413397 5.126026 11.970986
Cs 2.764912 7.176437 19.047443
Cl 4.413397 5.126026 16.688624
Cs 2.764912 7.176437 23.765081
Cl 4.413397 5.126026 21.406262
Cs -0.532058 11.277258 19.047443
Cl 1.116427 9.226847 16.688624
Cs -0.532058 11.277258 23.765081
Cl 1.116427 9.226847 21.406262
Cs -0.532058 11.277258 28.482719
Cl 1.116427 9.226847 26.123900
