54
A
Cs -2.208796 3.072636 3.735484
Cl -0.736265 1.024212 1.245161
Cs -2.208796 3.072636 8.716130
Cl -0.736265 1.024212 6.225807
Cs -2.208796 3.072636 13.696776
Cl -0.736265 1.024212 11.206453
Cs -5.153856 7.169484 8.716130
Cl -3.681326 5.121060 6.225807
Cs -5.153856 7.169484 13.696776
Cl -3.681326 5.121060 11.206453
Cs -5.153856 7.169484 18.677421
Cl -3.681326 5.121060 16.187099
Cs -8.098917 11.266332 13.696776
Cl -6.626387 9.217908 11.206453
Cs -8.098917 11.266332 18.677421
Cl -6.626387 9.217908 16.187099
Cs -8.098917 11.266332 23.658067
Cl -6.626387 9.217908 21.167744
Cs 2.126596 3.072636 6.308007
Cl 3.599126 1.024212 3.817684
Cs 2.126596 3.072636 11.288653
Cl 3.599126 1.024212 8.798330
Cs 2.126596 3.072636 16.269299
Cl 3.599126 1.024212 13.778976
Cs -0.818465 7.169484 11.288653
Cl 0.654065 5.121060 8.798330
Cs -0.818465 7.169484 16.269299
Cl 0.654065 5.121060 13.778976
Cs -0.818465 7.169484 21.249944
Cl 0.654065 5.121060 18.759621
Cs -3.763526 11.266332 16.269299
Cl -2.290996 9.217908 13.778976
Cs -3.763526 11.266332 21.249944
Cl -2.290996 9.217908 18.759621
Cs -3.763526 11.266332 26.230590
Cl -2.290996 9.217908 23.740267
Cs 6.461987 3.072636 8.880530
Cl 7.934517 1.024212 6.390207
Cs 6.461987 3.072636 13.861176
Cl 7.934517 1.024212 11.370853
Cs 6.461987 3.072636 18.841821
Cl 7.934517 1.024212 16.351499
Cs 3.516926 7.169484 13.861176
Cl 4.989456 5.121060 11.370853
Cs 3.516926 7.169484 18.841821
Cl 4.989456 5.121060 16.351499
Cs 3.516926 7.169484 23.822467
Cl 4.989456 5.121060 21.332144
Cs 0.571865 11.266332 18.841821
Cl 2.044396 9.217908 16.351499
Cs 0.571865 11.266332 23.822467
Cl 2.044396 9.217908 21.332144
Cs 0.571865 11.266332 28.803113
Cl 2.044396 9.217908 26.312790
