54
A
Cs -2.782164 3.079109 3.306963
Cl -0.927388 1.026370 1.102321
Cs -2.782164 3.079109 7.716248
Cl -0.927388 1.026370 5.511606
Cs -2.782164 3.079109 12.125532
Cl -0.927388 1.026370 9.920890
Cs -6.491716 7.184588 7.716248
Cl -4.636940 5.131849 5.511606
Cs -6.491716 7.184588 12.125532
Cl -4.636940 5.131849 9.920890
Cs -6.491716 7.184588 16.534817
Cl -4.636940 5.131849 14.330175
Cs -10.201268 11.290067 12.125532
Cl -8.346492 9.237328 9.920890
Cs -10.201268 11.290067 16.534817
Cl -8.346492 9.237328 14.330175
Cs -10.201268 11.290067 20.944101
Cl -8.346492 9.237328 18.739459
Cs 1.405314 3.079109 6.888456
Cl 3.260090 1.026370 4.683813
Cs 1.405314 3.079109 11.297740
Cl 3.260090 1.026370 9.093098
Cs 1.405314 3.079109 15.707025
Cl 3.260090 1.026370 13.502382
Cs -2.304238 7.184588 11.297740
Cl -0.449462 5.131849 9.093098
Cs -2.304238 7.184588 15.707025
Cl -0.449462 5.131849 13.502382
Cs -2.304238 7.184588 20.116309
Cl -0.449462 5.131849 17.911667
Cs -6.013790 11.290067 15.707025
Cl -4.159014 9.237328 13.502382
Cs -6.013790 11.290067 20.116309
Cl -4.159014 9.237328 17.911667
Cs -6.013790 11.290067 24.525593
Cl -4.159014 9.237328 22.320951
Cs 5.592792 3.079109 10.469948
Cl 7.447568 1.026370 8.265306
Cs 5.592792 3.079109 14.879232
Cl 7.447568 1.026370 12.674590
Cs 5.592792 3.079109 19.288517
Cl 7.447568 1.026370 17.083875
Cs 1.883240 7.184588 14.879232
Cl 3.738016 5.131849 12.674590
Cs 1.883240 7.184588 19.288517
Cl 3.738016 5.131849 17.083875
Cs 1.883240 7.184588 23.697801
Cl 3.738016 5.131849 21.493159
Cs -1.826312 11.290067 19.288517
Cl 0.028464 9.237328 17.083875
Cs -1.826312 11.290067 23.697801
Cl 0.028464 9.237328 21.493159
Cs -1.826312 11.290067 28.107086
Cl 0.028464 9.237328 25.902443
