54
A
Cs -2.700254 3.078185 3.368181
Cl -0.900085 1.026062 1.122727
Cs -2.700254 3.078185 7.859088
Cl -0.900085 1.026062 5.613634
Cs -2.700254 3.078185 12.349996
Cl -0.900085 1.026062 10.104542
Cs -6.300593 7.182431 7.859088
Cl -4.500424 5.130308 5.613634
Cs -6.300593 7.182431 12.349996
Cl -4.500424 5.130308 10.104542
Cs -6.300593 7.182431 16.840903
Cl -4.500424 5.130308 14.595449
Cs -9.900932 11.286677 12.349996
Cl -8.100763 9.234554 10.104542
Cs -9.900932 11.286677 16.840903
Cl -8.100763 9.234554 14.595449
Cs -9.900932 11.286677 21.331811
Cl -8.100763 9.234554 19.086357
Cs 1.508354 3.078185 6.805534
Cl 3.308524 1.026062 4.560081
Cs 1.508354 3.078185 11.296442
Cl 3.308524 1.026062 9.050988
Cs 1.508354 3.078185 15.787349
Cl 3.308524 1.026062 13.541896
Cs -2.091985 7.182431 11.296442
Cl -0.291815 5.130308 9.050988
Cs -2.091985 7.182431 15.787349
Cl -0.291815 5.130308 13.541896
Cs -2.091985 7.182431 20.278257
Cl -0.291815 5.130308 18.032803
Cs -5.692324 11.286677 15.787349
Cl -3.892154 9.234554 13.541896
Cs -5.692324 11.286677 20.278257
Cl -3.892154 9.234554 18.032803
Cs -5.692324 11.286677 24.769164
Cl -3.892154 9.234554 22.523711
Cs 5.716963 3.078185 10.242888
Cl 7.517132 1.026062 7.997434
Cs 5.716963 3.078185 14.733796
Cl 7.517132 1.026062 12.488342
Cs 5.716963 3.078185 19.224703
Cl 7.517132 1.026062 16.979249
Cs 2.116624 7.182431 14.733796
Cl 3.916793 5.130308 12.488342
Cs 2.116624 7.182431 19.224703
Cl 3.916793 5.130308 16.979249
Cs 2.116624 7.182431 23.715611
Cl 3.916793 5.130308 21.470157
Cs -1.483715 11.286677 19.224703
Cl 0.316454 9.234554 16.979249
Cs -1.483715 11.286677 23.715611
Cl 0.316454 9.234554 21.470157
Cs -1.483715 11.286677 28.206518
Cl 0.316454 9.234554 25.961064
