54
A
Cs -2.882276 3.080240 3.232142
Cl -0.960759 1.026747 1.077381
Cs -2.882276 3.080240 7.541665
Cl -0.960759 1.026747 5.386904
Cs -2.882276 3.080240 11.851188
Cl -0.960759 1.026747 9.696427
Cs -6.725311 7.187226 7.541665
Cl -4.803793 5.133733 5.386904
Cs -6.725311 7.187226 11.851188
Cl -4.803793 5.133733 9.696427
Cs -6.725311 7.187226 16.160711
Cl -4.803793 5.133733 14.005950
Cs -10.568346 11.294212 11.851188
Cl -8.646828 9.240719 9.696427
Cs -10.568346 11.294212 16.160711
Cl -8.646828 9.240719 14.005950
Cs -10.568346 11.294212 20.470234
Cl -8.646828 9.240719 18.315473
Cs 1.279376 3.080240 6.989804
Cl 3.200893 1.026747 4.835042
Cs 1.279376 3.080240 11.299327
Cl 3.200893 1.026747 9.144565
Cs 1.279376 3.080240 15.608850
Cl 3.200893 1.026747 13.454088
Cs -2.563659 7.187226 11.299327
Cl -0.642141 5.133733 9.144565
Cs -2.563659 7.187226 15.608850
Cl -0.642141 5.133733 13.454088
Cs -2.563659 7.187226 19.918373
Cl -0.642141 5.133733 17.763611
Cs -6.406693 11.294212 15.608850
Cl -4.485176 9.240719 13.454088
Cs -6.406693 11.294212 19.918373
Cl -4.485176 9.240719 17.763611
Cs -6.406693 11.294212 24.227896
Cl -4.485176 9.240719 22.073134
Cs 5.441028 3.080240 10.747465
Cl 7.362546 1.026747 8.592704
Cs 5.441028 3.080240 15.056988
Cl 7.362546 1.026747 12.902227
Cs 5.441028 3.080240 19.366511
Cl 7.362546 1.026747 17.211750
Cs 1.597993 7.187226 15.056988
Cl 3.519511 5.133733 12.902227
Cs 1.597993 7.187226 19.366511
Cl 3.519511 5.133733 17.211750
Cs 1.597993 7.187226 23.676034
Cl 3.519511 5.133733 21.521273
Cs -2.245041 11.294212 19.366511
Cl -0.323524 9.240719 17.211750
Cs -2.245041 11.294212 23.676034
Cl -0.323524 9.240719 21.521273
Cs -2.245041 11.294212 27.985557
Cl -0.323524 9.240719 25.830796
