54
A
Cs -2.791265 3.079212 3.300161
Cl -0.930422 1.026404 1.100054
Cs -2.791265 3.079212 7.700377
Cl -0.930422 1.026404 5.500269
Cs -2.791265 3.079212 12.100592
Cl -0.930422 1.026404 9.900484
Cs -6.512952 7.184828 7.700377
Cl -4.652109 5.132020 5.500269
Cs -6.512952 7.184828 12.100592
Cl -4.652109 5.132020 9.900484
Cs -6.512952 7.184828 16.500807
Cl -4.652109 5.132020 14.300700
Cs -10.234639 11.290444 12.100592
Cl -8.373796 9.237636 9.900484
Cs -10.234639 11.290444 16.500807
Cl -8.373796 9.237636 14.300700
Cs -10.234639 11.290444 20.901022
Cl -8.373796 9.237636 18.700915
Cs 1.393865 3.079212 6.897669
Cl 3.254709 1.026404 4.697561
Cs 1.393865 3.079212 11.297884
Cl 3.254709 1.026404 9.097777
Cs 1.393865 3.079212 15.698100
Cl 3.254709 1.026404 13.497992
Cs -2.327822 7.184828 11.297884
Cl -0.466978 5.132020 9.097777
Cs -2.327822 7.184828 15.698100
Cl -0.466978 5.132020 13.497992
Cs -2.327822 7.184828 20.098315
Cl -0.466978 5.132020 17.898207
Cs -6.049509 11.290444 15.698100
Cl -4.188665 9.237636 13.497992
Cs -6.049509 11.290444 20.098315
Cl -4.188665 9.237636 17.898207
Cs -6.049509 11.290444 24.498530
Cl -4.188665 9.237636 22.298422
Cs 5.578996 3.079212 10.495177
Cl 7.439839 1.026404 8.295069
Cs 5.578996 3.079212 14.895392
Cl 7.439839 1.026404 12.695284
Cs 5.578996 3.079212 19.295607
Cl 7.439839 1.026404 17.095500
Cs 1.857309 7.184828 14.895392
Cl 3.718152 5.132020 12.695284
Cs 1.857309 7.184828 19.295607
Cl 3.718152 5.132020 17.095500
Cs 1.857309 7.184828 23.695822
Cl 3.718152 5.132020 21.495715
Cs -1.864378 11.290444 19.295607
Cl -0.003535 9.237636 17.095500
Cs -1.864378 11.290444 23.695822
Cl -0.003535 9.237636 21.495715
Cs -1.864378 11.290444 28.096038
Cl -0.003535 9.237636 25.895930
