54
A
Cs -2.927782 3.080753 3.198133
Cl -0.975927 1.026918 1.066044
Cs -2.927782 3.080753 7.462309
Cl -0.975927 1.026918 5.330221
Cs -2.927782 3.080753 11.726486
Cl -0.975927 1.026918 9.594398
Cs -6.831490 7.188424 7.462309
Cl -4.879636 5.134589 5.330221
Cs -6.831490 7.188424 11.726486
Cl -4.879636 5.134589 9.594398
Cs -6.831490 7.188424 15.990663
Cl -4.879636 5.134589 13.858575
Cs -10.735199 11.296095 11.726486
Cl -8.783345 9.242260 9.594398
Cs -10.735199 11.296095 15.990663
Cl -8.783345 9.242260 13.858575
Cs -10.735199 11.296095 20.254840
Cl -8.783345 9.242260 18.122752
Cs 1.222132 3.080753 7.035871
Cl 3.173986 1.026918 4.903783
Cs 1.222132 3.080753 11.300048
Cl 3.173986 1.026918 9.167959
Cs 1.222132 3.080753 15.564225
Cl 3.173986 1.026918 13.432136
Cs -2.681577 7.188424 11.300048
Cl -0.729723 5.134589 9.167959
Cs -2.681577 7.188424 15.564225
Cl -0.729723 5.134589 13.432136
Cs -2.681577 7.188424 19.828402
Cl -0.729723 5.134589 17.696313
Cs -6.585286 11.296095 15.564225
Cl -4.633432 9.242260 13.432136
Cs -6.585286 11.296095 19.828402
Cl -4.633432 9.242260 17.696313
Cs -6.585286 11.296095 24.092578
Cl -4.633432 9.242260 21.960490
Cs 5.372045 3.080753 10.873609
Cl 7.323899 1.026918 8.741521
Cs 5.372045 3.080753 15.137786
Cl 7.323899 1.026918 13.005698
Cs 5.372045 3.080753 19.401963
Cl 7.323899 1.026918 17.269875
Cs 1.468336 7.188424 15.137786
Cl 3.420190 5.134589 13.005698
Cs 1.468336 7.188424 19.401963
Cl 3.420190 5.134589 17.269875
Cs 1.468336 7.188424 23.666140
Cl 3.420190 5.134589 21.534052
Cs -2.435373 11.296095 19.401963
Cl -0.483518 9.242260 17.269875
Cs -2.435373 11.296095 23.666140
Cl -0.483518 9.242260 21.534052
Cs -2.435373 11.296095 27.930317
Cl -0.483518 9.242260 25.798228
