54
A
Cs -2.663850 3.077774 3.395388
Cl -0.887950 1.025925 1.131796
Cs -2.663850 3.077774 7.922573
Cl -0.887950 1.025925 5.658981
Cs -2.663850 3.077774 12.449757
Cl -0.887950 1.025925 10.186165
Cs -6.215650 7.181472 7.922573
Cl -4.439750 5.129623 5.658981
Cs -6.215650 7.181472 12.449757
Cl -4.439750 5.129623 10.186165
Cs -6.215650 7.181472 16.976942
Cl -4.439750 5.129623 14.713349
Cs -9.767450 11.285170 12.449757
Cl -7.991550 9.233321 10.186165
Cs -9.767450 11.285170 16.976942
Cl -7.991550 9.233321 14.713349
Cs -9.767450 11.285170 21.504126
Cl -7.991550 9.233321 19.240534
Cs 1.554150 3.077774 6.768681
Cl 3.330050 1.025925 4.505088
Cs 1.554150 3.077774 11.295865
Cl 3.330050 1.025925 9.032273
Cs 1.554150 3.077774 15.823049
Cl 3.330050 1.025925 13.559457
Cs -1.997650 7.181472 11.295865
Cl -0.221750 5.129623 9.032273
Cs -1.997650 7.181472 15.823049
Cl -0.221750 5.129623 13.559457
Cs -1.997650 7.181472 20.350234
Cl -0.221750 5.129623 18.086642
Cs -5.549450 11.285170 15.823049
Cl -3.773550 9.233321 13.559457
Cs -5.549450 11.285170 20.350234
Cl -3.773550 9.233321 18.086642
Cs -5.549450 11.285170 24.877418
Cl -3.773550 9.233321 22.613826
Cs 5.772150 3.077774 10.141973
Cl 7.548050 1.025925 7.878381
Cs 5.772150 3.077774 14.669157
Cl 7.548050 1.025925 12.405565
Cs 5.772150 3.077774 19.196342
Cl 7.548050 1.025925 16.932749
Cs 2.220350 7.181472 14.669157
Cl 3.996250 5.129623 12.405565
Cs 2.220350 7.181472 19.196342
Cl 3.996250 5.129623 16.932749
Cs 2.220350 7.181472 23.723526
Cl 3.996250 5.129623 21.459934
Cs -1.331450 11.285170 19.196342
Cl 0.444450 9.233321 16.932749
Cs -1.331450 11.285170 23.723526
Cl 0.444450 9.233321 21.459934
Cs -1.331450 11.285170 28.250710
Cl 0.444450 9.233321 25.987118
