54
A
Cs -2.955085 3.081062 3.177727
Cl -0.985028 1.027021 1.059242
Cs -2.955085 3.081062 7.414696
Cl -0.985028 1.027021 5.296211
Cs -2.955085 3.081062 11.651665
Cl -0.985028 1.027021 9.533181
Cs -6.895198 7.189144 7.414696
Cl -4.925141 5.135103 5.296211
Cs -6.895198 7.189144 11.651665
Cl -4.925141 5.135103 9.533181
Cs -6.895198 7.189144 15.888634
Cl -4.925141 5.135103 13.770150
Cs -10.835311 11.297226 11.651665
Cl -8.865254 9.243185 9.533181
Cs -10.835311 11.297226 15.888634
Cl -8.865254 9.243185 13.770150
Cs -10.835311 11.297226 20.125604
Cl -8.865254 9.243185 18.007119
Cs 1.187785 3.081062 7.063511
Cl 3.157841 1.027021 4.945027
Cs 1.187785 3.081062 11.300481
Cl 3.157841 1.027021 9.181996
Cs 1.187785 3.081062 15.537450
Cl 3.157841 1.027021 13.418965
Cs -2.752328 7.189144 11.300481
Cl -0.782272 5.135103 9.181996
Cs -2.752328 7.189144 15.537450
Cl -0.782272 5.135103 13.418965
Cs -2.752328 7.189144 19.774419
Cl -0.782272 5.135103 17.655934
Cs -6.692441 11.297226 15.537450
Cl -4.722385 9.243185 13.418965
Cs -6.692441 11.297226 19.774419
Cl -4.722385 9.243185 17.655934
Cs -6.692441 11.297226 24.011388
Cl -4.722385 9.243185 21.892904
Cs 5.330654 3.081062 10.949296
Cl 7.300711 1.027021 8.830811
Cs 5.330654 3.081062 15.186265
Cl 7.300711 1.027021 13.067781
Cs 5.330654 3.081062 19.423234
Cl 7.300711 1.027021 17.304750
Cs 1.390541 7.189144 15.186265
Cl 3.360598 5.135103 13.067781
Cs 1.390541 7.189144 19.423234
Cl 3.360598 5.135103 17.304750
Cs 1.390541 7.189144 23.660204
Cl 3.360598 5.135103 21.541719
Cs -2.549572 11.297226 19.423234
Cl -0.579515 9.243185 17.304750
Cs -2.549572 11.297226 23.660204
Cl -0.579515 9.243185 21.541719
Cs -2.549572 11.297226 27.897173
Cl -0.579515 9.243185 25.778688
