54
A
Cs -2.654749 3.077671 3.402190
Cl -0.884916 1.025890 1.134063
Cs -2.654749 3.077671 7.938444
Cl -0.884916 1.025890 5.670317
Cs -2.654749 3.077671 12.474697
Cl -0.884916 1.025890 10.206571
Cs -6.194414 7.181232 7.938444
Cl -4.424581 5.129451 5.670317
Cs -6.194414 7.181232 12.474697
Cl -4.424581 5.129451 10.206571
Cs -6.194414 7.181232 17.010951
Cl -4.424581 5.129451 14.742824
Cs -9.734079 11.284793 12.474697
Cl -7.964247 9.233012 10.206571
Cs -9.734079 11.284793 17.010951
Cl -7.964247 9.233012 14.742824
Cs -9.734079 11.284793 21.547205
Cl -7.964247 9.233012 19.279078
Cs 1.565599 3.077671 6.759467
Cl 3.335431 1.025890 4.491340
Cs 1.565599 3.077671 11.295721
Cl 3.335431 1.025890 9.027594
Cs 1.565599 3.077671 15.831974
Cl 3.335431 1.025890 13.563847
Cs -1.974066 7.181232 11.295721
Cl -0.204234 5.129451 9.027594
Cs -1.974066 7.181232 15.831974
Cl -0.204234 5.129451 13.563847
Cs -1.974066 7.181232 20.368228
Cl -0.204234 5.129451 18.100101
Cs -5.513731 11.284793 15.831974
Cl -3.743899 9.233012 13.563847
Cs -5.513731 11.284793 20.368228
Cl -3.743899 9.233012 18.100101
Cs -5.513731 11.284793 24.904482
Cl -3.743899 9.233012 22.636355
Cs 5.785947 3.077671 10.116744
Cl 7.555779 1.025890 7.848617
Cs 5.785947 3.077671 14.652997
Cl 7.555779 1.025890 12.384871
Cs 5.785947 3.077671 19.189251
Cl 7.555779 1.025890 16.921124
Cs 2.246281 7.181232 14.652997
Cl 4.016114 5.129451 12.384871
Cs 2.246281 7.181232 19.189251
Cl 4.016114 5.129451 16.921124
Cs 2.246281 7.181232 23.725505
Cl 4.016114 5.129451 21.457378
Cs -1.293384 11.284793 19.189251
Cl 0.476449 9.233012 16.921124
Cs -1.293384 11.284793 23.725505
Cl 0.476449 9.233012 21.457378
Cs -1.293384 11.284793 28.261758
Cl 0.476449 9.233012 25.993632
