54
A
Cs -2.736659 3.078596 3.340973
Cl -0.912220 1.026199 1.113658
Cs -2.736659 3.078596 7.795604
Cl -0.912220 1.026199 5.568288
Cs -2.736659 3.078596 12.250234
Cl -0.912220 1.026199 10.022919
Cs -6.385537 7.183390 7.795604
Cl -4.561098 5.130993 5.568288
Cs -6.385537 7.183390 12.250234
Cl -4.561098 5.130993 10.022919
Cs -6.385537 7.183390 16.704865
Cl -4.561098 5.130993 14.477549
Cs -10.034415 11.288184 12.250234
Cl -8.209976 9.235787 10.022919
Cs -10.034415 11.288184 16.704865
Cl -8.209976 9.235787 14.477549
Cs -10.034415 11.288184 21.159495
Cl -8.209976 9.235787 18.932180
Cs 1.462559 3.078596 6.842388
Cl 3.286998 1.026199 4.615073
Cs 1.462559 3.078596 11.297019
Cl 3.286998 1.026199 9.069704
Cs 1.462559 3.078596 15.751649
Cl 3.286998 1.026199 13.524334
Cs -2.186320 7.183390 11.297019
Cl -0.361880 5.130993 9.069704
Cs -2.186320 7.183390 15.751649
Cl -0.361880 5.130993 13.524334
Cs -2.186320 7.183390 20.206280
Cl -0.361880 5.130993 17.978965
Cs -5.835198 11.288184 15.751649
Cl -4.010759 9.235787 13.524334
Cs -5.835198 11.288184 20.206280
Cl -4.010759 9.235787 17.978965
Cs -5.835198 11.288184 24.660911
Cl -4.010759 9.235787 22.433595
Cs 5.661776 3.078596 10.343804
Cl 7.486215 1.026199 8.116488
Cs 5.661776 3.078596 14.798434
Cl 7.486215 1.026199 12.571119
Cs 5.661776 3.078596 19.253065
Cl 7.486215 1.026199 17.025749
Cs 2.012898 7.183390 14.798434
Cl 3.837337 5.130993 12.571119
Cs 2.012898 7.183390 19.253065
Cl 3.837337 5.130993 17.025749
Cs 2.012898 7.183390 23.707695
Cl 3.837337 5.130993 21.480380
Cs -1.635980 11.288184 19.253065
Cl 0.188459 9.235787 17.025749
Cs -1.635980 11.288184 23.707695
Cl 0.188459 9.235787 21.480380
Cs -1.635980 11.288184 28.162326
Cl 0.188459 9.235787 25.935011
