54
A
Cs -2.217897 3.072739 3.728682
Cl -0.739299 1.024246 1.242894
Cs -2.217897 3.072739 8.700259
Cl -0.739299 1.024246 6.214471
Cs -2.217897 3.072739 13.671835
Cl -0.739299 1.024246 11.186047
Cs -5.175092 7.169724 8.700259
Cl -3.696494 5.121231 6.214471
Cs -5.175092 7.169724 13.671835
Cl -3.696494 5.121231 11.186047
Cs -5.175092 7.169724 18.643412
Cl -3.696494 5.121231 16.157624
Cs -8.132288 11.266709 13.671835
Cl -6.653690 9.218217 11.186047
Cs -8.132288 11.266709 18.643412
Cl -6.653690 9.218217 16.157624
Cs -8.132288 11.266709 23.614988
Cl -6.653690 9.218217 21.129200
Cs 2.115147 3.072739 6.317221
Cl 3.593744 1.024246 3.831432
Cs 2.115147 3.072739 11.288797
Cl 3.593744 1.024246 8.803009
Cs 2.115147 3.072739 16.260374
Cl 3.593744 1.024246 13.774585
Cs -0.842049 7.169724 11.288797
Cl 0.636549 5.121231 8.803009
Cs -0.842049 7.169724 16.260374
Cl 0.636549 5.121231 13.774585
Cs -0.842049 7.169724 21.231950
Cl 0.636549 5.121231 18.746162
Cs -3.799244 11.266709 16.260374
Cl -2.320647 9.218217 13.774585
Cs -3.799244 11.266709 21.231950
Cl -2.320647 9.218217 18.746162
Cs -3.799244 11.266709 26.203527
Cl -2.320647 9.218217 23.717738
Cs 6.448190 3.072739 8.905759
Cl 7.926788 1.024246 6.419971
Cs 6.448190 3.072739 13.877335
Cl 7.926788 1.024246 11.391547
Cs 6.448190 3.072739 18.848912
Cl 7.926788 1.024246 16.363124
Cs 3.490994 7.169724 13.877335
Cl 4.969592 5.121231 11.391547
Cs 3.490994 7.169724 18.848912
Cl 4.969592 5.121231 16.363124
Cs 3.490994 7.169724 23.820488
Cl 4.969592 5.121231 21.334700
Cs 0.533799 11.266709 18.848912
Cl 2.012397 9.218217 16.363124
Cs 0.533799 11.266709 23.820488
Cl 2.012397 9.218217 21.334700
Cs 0.533799 11.266709 28.792065
Cl 2.012397 9.218217 26.306277
