54
A
Cs -2.945984 3.080959 3.184529
Cl -0.981995 1.026986 1.061510
Cs -2.945984 3.080959 7.430567
Cl -0.981995 1.026986 5.307548
Cs -2.945984 3.080959 11.676606
Cl -0.981995 1.026986 9.553586
Cs -6.873962 7.188904 7.430567
Cl -4.909973 5.134931 5.307548
Cs -6.873962 7.188904 11.676606
Cl -4.909973 5.134931 9.553586
Cs -6.873962 7.188904 15.922644
Cl -4.909973 5.134931 13.799625
Cs -10.801940 11.296849 11.676606
Cl -8.837951 9.242876 9.553586
Cs -10.801940 11.296849 15.922644
Cl -8.837951 9.242876 13.799625
Cs -10.801940 11.296849 20.168682
Cl -8.837951 9.242876 18.045663
Cs 1.199234 3.080959 7.054298
Cl 3.163223 1.026986 4.931279
Cs 1.199234 3.080959 11.300336
Cl 3.163223 1.026986 9.177317
Cs 1.199234 3.080959 15.546375
Cl 3.163223 1.026986 13.423356
Cs -2.728745 7.188904 11.300336
Cl -0.764755 5.134931 9.177317
Cs -2.728745 7.188904 15.546375
Cl -0.764755 5.134931 13.423356
Cs -2.728745 7.188904 19.792413
Cl -0.764755 5.134931 17.669394
Cs -6.656723 11.296849 15.546375
Cl -4.692734 9.242876 13.423356
Cs -6.656723 11.296849 19.792413
Cl -4.692734 9.242876 17.669394
Cs -6.656723 11.296849 24.038452
Cl -4.692734 9.242876 21.915432
Cs 5.344451 3.080959 10.924067
Cl 7.308440 1.026986 8.801048
Cs 5.344451 3.080959 15.170106
Cl 7.308440 1.026986 13.047086
Cs 5.344451 3.080959 19.416144
Cl 7.308440 1.026986 17.293125
Cs 1.416473 7.188904 15.170106
Cl 3.380462 5.134931 13.047086
Cs 1.416473 7.188904 19.416144
Cl 3.380462 5.134931 17.293125
Cs 1.416473 7.188904 23.662182
Cl 3.380462 5.134931 21.539163
Cs -2.511505 11.296849 19.416144
Cl -0.547516 9.242876 17.293125
Cs -2.511505 11.296849 23.662182
Cl -0.547516 9.242876 21.539163
Cs -2.511505 11.296849 27.908221
Cl -0.547516 9.242876 25.785202
