54
A
Cs -2.918680 3.080651 3.204935
Cl -0.972893 1.026884 1.068312
Cs -2.918680 3.080651 7.478181
Cl -0.972893 1.026884 5.341558
Cs -2.918680 3.080651 11.751427
Cl -0.972893 1.026884 9.614804
Cs -6.810254 7.188185 7.478181
Cl -4.864467 5.134418 5.341558
Cs -6.810254 7.188185 11.751427
Cl -4.864467 5.134418 9.614804
Cs -6.810254 7.188185 16.024673
Cl -4.864467 5.134418 13.888050
Cs -10.701828 11.295719 11.751427
Cl -8.756041 9.241952 9.614804
Cs -10.701828 11.295719 16.024673
Cl -8.756041 9.241952 13.888050
Cs -10.701828 11.295719 20.297919
Cl -8.756041 9.241952 18.161296
Cs 1.233580 3.080651 7.026658
Cl 3.179367 1.026884 4.890035
Cs 1.233580 3.080651 11.299904
Cl 3.179367 1.026884 9.163281
Cs 1.233580 3.080651 15.573150
Cl 3.179367 1.026884 13.436527
Cs -2.657993 7.188185 11.299904
Cl -0.712207 5.134418 9.163281
Cs -2.657993 7.188185 15.573150
Cl -0.712207 5.134418 13.436527
Cs -2.657993 7.188185 19.846396
Cl -0.712207 5.134418 17.709773
Cs -6.549567 11.295719 15.573150
Cl -4.603780 9.241952 13.436527
Cs -6.549567 11.295719 19.846396
Cl -4.603780 9.241952 17.709773
Cs -6.549567 11.295719 24.119642
Cl -4.603780 9.241952 21.983019
Cs 5.385841 3.080651 10.848381
Cl 7.331628 1.026884 8.711758
Cs 5.385841 3.080651 15.121627
Cl 7.331628 1.026884 12.985004
Cs 5.385841 3.080651 19.394873
Cl 7.331628 1.026884 17.258250
Cs 1.494267 7.188185 15.121627
Cl 3.440054 5.134418 12.985004
Cs 1.494267 7.188185 19.394873
Cl 3.440054 5.134418 17.258250
Cs 1.494267 7.188185 23.668119
Cl 3.440054 5.134418 21.531496
Cs -2.397307 11.295719 19.394873
Cl -0.451520 9.241952 17.258250
Cs -2.397307 11.295719 23.668119
Cl -0.451520 9.241952 21.531496
Cs -2.397307 11.295719 27.941365
Cl -0.451520 9.241952 25.804742
