54
A
Cs -2.709355 3.078287 3.361379
Cl -0.903118 1.026096 1.120460
Cs -2.709355 3.078287 7.843217
Cl -0.903118 1.026096 5.602298
Cs -2.709355 3.078287 12.325055
Cl -0.903118 1.026096 10.084136
Cs -6.321829 7.182670 7.843217
Cl -4.515592 5.130479 5.602298
Cs -6.321829 7.182670 12.325055
Cl -4.515592 5.130479 10.084136
Cs -6.321829 7.182670 16.806894
Cl -4.515592 5.130479 14.565974
Cs -9.934303 11.287053 12.325055
Cl -8.128066 9.234862 10.084136
Cs -9.934303 11.287053 16.806894
Cl -8.128066 9.234862 14.565974
Cs -9.934303 11.287053 21.288732
Cl -8.128066 9.234862 19.047813
Cs 1.496905 3.078287 6.814748
Cl 3.303142 1.026096 4.573829
Cs 1.496905 3.078287 11.296586
Cl 3.303142 1.026096 9.055667
Cs 1.496905 3.078287 15.778424
Cl 3.303142 1.026096 13.537505
Cs -2.115568 7.182670 11.296586
Cl -0.309332 5.130479 9.055667
Cs -2.115568 7.182670 15.778424
Cl -0.309332 5.130479 13.537505
Cs -2.115568 7.182670 20.260263
Cl -0.309332 5.130479 18.019344
Cs -5.728042 11.287053 15.778424
Cl -3.921805 9.234862 13.537505
Cs -5.728042 11.287053 20.260263
Cl -3.921805 9.234862 18.019344
Cs -5.728042 11.287053 24.742101
Cl -3.921805 9.234862 22.501182
Cs 5.703166 3.078287 10.268117
Cl 7.509403 1.026096 8.027198
Cs 5.703166 3.078287 14.749955
Cl 7.509403 1.026096 12.509036
Cs 5.703166 3.078287 19.231794
Cl 7.509403 1.026096 16.990874
Cs 2.090692 7.182670 14.749955
Cl 3.896929 5.130479 12.509036
Cs 2.090692 7.182670 19.231794
Cl 3.896929 5.130479 16.990874
Cs 2.090692 7.182670 23.713632
Cl 3.896929 5.130479 21.472713
Cs -1.521782 11.287053 19.231794
Cl 0.284455 9.234862 16.990874
Cs -1.521782 11.287053 23.713632
Cl 0.284455 9.234862 21.472713
Cs -1.521782 11.287053 28.195470
Cl 0.284455 9.234862 25.954551
