54
A
Cs -3.009691 3.081678 3.136915
Cl -1.003230 1.027226 1.045638
Cs -3.009691 3.081678 7.319469
Cl -1.003230 1.027226 5.228192
Cs -3.009691 3.081678 11.502023
Cl -1.003230 1.027226 9.410746
Cs -7.022613 7.190582 7.319469
Cl -5.016152 5.136130 5.228192
Cs -7.022613 7.190582 11.502023
Cl -5.016152 5.136130 9.410746
Cs -7.022613 7.190582 15.684577
Cl -5.016152 5.136130 13.593300
Cs -11.035535 11.299486 11.502023
Cl -9.029074 9.245034 9.410746
Cs -11.035535 11.299486 15.684577
Cl -9.029074 9.245034 13.593300
Cs -11.035535 11.299486 19.867131
Cl -9.029074 9.245034 17.775854
Cs 1.119091 3.081678 7.118792
Cl 3.125552 1.027226 5.027515
Cs 1.119091 3.081678 11.301346
Cl 3.125552 1.027226 9.210069
Cs 1.119091 3.081678 15.483900
Cl 3.125552 1.027226 13.392623
Cs -2.893830 7.190582 11.301346
Cl -0.887370 5.136130 9.210069
Cs -2.893830 7.190582 15.483900
Cl -0.887370 5.136130 13.392623
Cs -2.893830 7.190582 19.666454
Cl -0.887370 5.136130 17.575177
Cs -6.906752 11.299486 15.483900
Cl -4.900291 9.245034 13.392623
Cs -6.906752 11.299486 19.666454
Cl -4.900291 9.245034 17.575177
Cs -6.906752 11.299486 23.849007
Cl -4.900291 9.245034 21.757731
Cs 5.247874 3.081678 11.100669
Cl 7.254335 1.027226 9.009392
Cs 5.247874 3.081678 15.283223
Cl 7.254335 1.027226 13.191946
Cs 5.247874 3.081678 19.465777
Cl 7.254335 1.027226 17.374500
Cs 1.234952 7.190582 15.283223
Cl 3.241413 5.136130 13.191946
Cs 1.234952 7.190582 19.465777
Cl 3.241413 5.136130 17.374500
Cs 1.234952 7.190582 23.648331
Cl 3.241413 5.136130 21.557054
Cs -2.777970 11.299486 19.465777
Cl -0.771509 9.245034 17.374500
Cs -2.777970 11.299486 23.648331
Cl -0.771509 9.245034 21.557054
Cs -2.777970 11.299486 27.830884
Cl -0.771509 9.245034 25.739607
