54
A
Cs -2.727558 3.078493 3.347775
Cl -0.909186 1.026164 1.115925
Cs -2.727558 3.078493 7.811475
Cl -0.909186 1.026164 5.579625
Cs -2.727558 3.078493 12.275175
Cl -0.909186 1.026164 10.043325
Cs -6.364301 7.183150 7.811475
Cl -4.545929 5.130821 5.579625
Cs -6.364301 7.183150 12.275175
Cl -4.545929 5.130821 10.043325
Cs -6.364301 7.183150 16.738874
Cl -4.545929 5.130821 14.507024
Cs -10.001044 11.287807 12.275175
Cl -8.182673 9.235478 10.043325
Cs -10.001044 11.287807 16.738874
Cl -8.182673 9.235478 14.507024
Cs -10.001044 11.287807 21.202574
Cl -8.182673 9.235478 18.970724
Cs 1.474008 3.078493 6.833175
Cl 3.292379 1.026164 4.601325
Cs 1.474008 3.078493 11.296875
Cl 3.292379 1.026164 9.065025
Cs 1.474008 3.078493 15.760574
Cl 3.292379 1.026164 13.528725
Cs -2.162736 7.183150 11.296875
Cl -0.344364 5.130821 9.065025
Cs -2.162736 7.183150 15.760574
Cl -0.344364 5.130821 13.528725
Cs -2.162736 7.183150 20.224274
Cl -0.344364 5.130821 17.992424
Cs -5.799479 11.287807 15.760574
Cl -3.981108 9.235478 13.528725
Cs -5.799479 11.287807 20.224274
Cl -3.981108 9.235478 17.992424
Cs -5.799479 11.287807 24.687974
Cl -3.981108 9.235478 22.456124
Cs 5.675573 3.078493 10.318575
Cl 7.493944 1.026164 8.086725
Cs 5.675573 3.078493 14.782275
Cl 7.493944 1.026164 12.550425
Cs 5.675573 3.078493 19.245974
Cl 7.493944 1.026164 17.014124
Cs 2.038829 7.183150 14.782275
Cl 3.857201 5.130821 12.550425
Cs 2.038829 7.183150 19.245974
Cl 3.857201 5.130821 17.014124
Cs 2.038829 7.183150 23.709674
Cl 3.857201 5.130821 21.477824
Cs -1.597914 11.287807 19.245974
Cl 0.220458 9.235478 17.014124
Cs -1.597914 11.287807 23.709674
Cl 0.220458 9.235478 21.477824
Cs -1.597914 11.287807 28.173374
Cl 0.220458 9.235478 25.941524
