54
A
Cs -2.254301 3.073150 3.701475
Cl -0.751434 1.024383 1.233825
Cs -2.254301 3.073150 8.636774
Cl -0.751434 1.024383 6.169124
Cs -2.254301 3.073150 13.572074
Cl -0.751434 1.024383 11.104424
Cs -5.260036 7.170683 8.636774
Cl -3.757168 5.121916 6.169124
Cs -5.260036 7.170683 13.572074
Cl -3.757168 5.121916 11.104424
Cs -5.260036 7.170683 18.507373
Cl -3.757168 5.121916 16.039724
Cs -8.265770 11.268216 13.572074
Cl -6.762903 9.219450 11.104424
Cs -8.265770 11.268216 18.507373
Cl -6.762903 9.219450 16.039724
Cs -8.265770 11.268216 23.442673
Cl -6.762903 9.219450 20.975023
Cs 2.069351 3.073150 6.354074
Cl 3.572218 1.024383 3.886425
Cs 2.069351 3.073150 11.289374
Cl 3.572218 1.024383 8.821724
Cs 2.069351 3.073150 16.224674
Cl 3.572218 1.024383 13.757024
Cs -0.936384 7.170683 11.289374
Cl 0.566484 5.121916 8.821724
Cs -0.936384 7.170683 16.224674
Cl 0.566484 5.121916 13.757024
Cs -0.936384 7.170683 21.159973
Cl 0.566484 5.121916 18.692323
Cs -3.942118 11.268216 16.224674
Cl -2.439251 9.219450 13.757024
Cs -3.942118 11.268216 21.159973
Cl -2.439251 9.219450 18.692323
Cs -3.942118 11.268216 26.095273
Cl -2.439251 9.219450 23.627623
Cs 6.393003 3.073150 9.006674
Cl 7.895870 1.024383 6.539024
Cs 6.393003 3.073150 13.941974
Cl 7.895870 1.024383 11.474324
Cs 6.393003 3.073150 18.877273
Cl 7.895870 1.024383 16.409624
Cs 3.387268 7.170683 13.941974
Cl 4.890136 5.121916 11.474324
Cs 3.387268 7.170683 18.877273
Cl 4.890136 5.121916 16.409624
Cs 3.387268 7.170683 23.812573
Cl 4.890136 5.121916 21.344923
Cs 0.381534 11.268216 18.877273
Cl 1.884401 9.219450 16.409624
Cs 0.381534 11.268216 23.812573
Cl 1.884401 9.219450 21.344923
Cs 0.381534 11.268216 28.747873
Cl 1.884401 9.219450 26.280223
