54
A
Cs -2.363514 3.074383 3.619852
Cl -0.787838 1.024794 1.206617
Cs -2.363514 3.074383 8.446321
Cl -0.787838 1.024794 6.033086
Cs -2.363514 3.074383 13.272789
Cl -0.787838 1.024794 10.859555
Cs -5.514866 7.173560 8.446321
Cl -3.939190 5.123971 6.033086
Cs -5.514866 7.173560 13.272789
Cl -3.939190 5.123971 10.859555
Cs -5.514866 7.173560 18.099258
Cl -3.939190 5.123971 15.686024
Cs -8.666218 11.272737 13.272789
Cl -7.090542 9.223149 10.859555
Cs -8.666218 11.272737 18.099258
Cl -7.090542 9.223149 15.686024
Cs -8.666218 11.272737 22.925727
Cl -7.090542 9.223149 20.512493
Cs 1.931964 3.074383 6.464636
Cl 3.507640 1.024794 4.051402
Cs 1.931964 3.074383 11.291105
Cl 3.507640 1.024794 8.877871
Cs 1.931964 3.074383 16.117574
Cl 3.507640 1.024794 13.704339
Cs -1.219388 7.173560 11.291105
Cl 0.356288 5.123971 8.877871
Cs -1.219388 7.173560 16.117574
Cl 0.356288 5.123971 13.704339
Cs -1.219388 7.173560 20.944043
Cl 0.356288 5.123971 18.530808
Cs -4.370740 11.272737 16.117574
Cl -2.795064 9.223149 13.704339
Cs -4.370740 11.272737 20.944043
Cl -2.795064 9.223149 18.530808
Cs -4.370740 11.272737 25.770512
Cl -2.795064 9.223149 23.357277
Cs 6.227442 3.074383 9.309421
Cl 7.803118 1.024794 6.896186
Cs 6.227442 3.074383 14.135889
Cl 7.803118 1.024794 11.722655
Cs 6.227442 3.074383 18.962358
Cl 7.803118 1.024794 16.549124
Cs 3.076090 7.173560 14.135889
Cl 4.651766 5.123971 11.722655
Cs 3.076090 7.173560 18.962358
Cl 4.651766 5.123971 16.549124
Cs 3.076090 7.173560 23.788827
Cl 4.651766 5.123971 21.375593
Cs -0.075262 11.272737 18.962358
Cl 1.500414 9.223149 16.549124
Cs -0.075262 11.272737 23.788827
Cl 1.500414 9.223149 21.375593
Cs -0.075262 11.272737 28.615296
Cl 1.500414 9.223149 26.202062
