54
A
Cs -2.964186 3.081164 3.170925
Cl -0.988062 1.027055 1.056975
Cs -2.964186 3.081164 7.398825
Cl -0.988062 1.027055 5.284875
Cs -2.964186 3.081164 11.626725
Cl -0.988062 1.027055 9.512775
Cs -6.916434 7.189383 7.398825
Cl -4.940310 5.135274 5.284875
Cs -6.916434 7.189383 11.626725
Cl -4.940310 5.135274 9.512775
Cs -6.916434 7.189383 15.854625
Cl -4.940310 5.135274 13.740675
Cs -10.868681 11.297602 11.626725
Cl -8.892558 9.243493 9.512775
Cs -10.868681 11.297602 15.854625
Cl -8.892558 9.243493 13.740675
Cs -10.868681 11.297602 20.082525
Cl -8.892558 9.243493 17.968575
Cs 1.176336 3.081164 7.072725
Cl 3.152460 1.027055 4.958775
Cs 1.176336 3.081164 11.300625
Cl 3.152460 1.027055 9.186675
Cs 1.176336 3.081164 15.528525
Cl 3.152460 1.027055 13.414575
Cs -2.775912 7.189383 11.300625
Cl -0.799788 5.135274 9.186675
Cs -2.775912 7.189383 15.528525
Cl -0.799788 5.135274 13.414575
Cs -2.775912 7.189383 19.756425
Cl -0.799788 5.135274 17.642475
Cs -6.728160 11.297602 15.528525
Cl -4.752036 9.243493 13.414575
Cs -6.728160 11.297602 19.756425
Cl -4.752036 9.243493 17.642475
Cs -6.728160 11.297602 23.984325
Cl -4.752036 9.243493 21.870375
Cs 5.316858 3.081164 10.974525
Cl 7.292981 1.027055 8.860575
Cs 5.316858 3.081164 15.202425
Cl 7.292981 1.027055 13.088475
Cs 5.316858 3.081164 19.430325
Cl 7.292981 1.027055 17.316375
Cs 1.364610 7.189383 15.202425
Cl 3.340734 5.135274 13.088475
Cs 1.364610 7.189383 19.430325
Cl 3.340734 5.135274 17.316375
Cs 1.364610 7.189383 23.658225
Cl 3.340734 5.135274 21.544275
Cs -2.587638 11.297602 19.430325
Cl -0.611514 9.243493 17.316375
Cs -2.587638 11.297602 23.658225
Cl -0.611514 9.243493 21.544275
Cs -2.587638 11.297602 27.886125
Cl -0.611514 9.243493 25.772175
