54
A
Cs -2.236099 3.072944 3.715079
Cl -0.745366 1.024315 1.238360
Cs -2.236099 3.072944 8.668517
Cl -0.745366 1.024315 6.191798
Cs -2.236099 3.072944 13.621955
Cl -0.745366 1.024315 11.145236
Cs -5.217564 7.170204 8.668517
Cl -3.726831 5.121574 6.191798
Cs -5.217564 7.170204 13.621955
Cl -3.726831 5.121574 11.145236
Cs -5.217564 7.170204 18.575393
Cl -3.726831 5.121574 16.098674
Cs -8.199029 11.267463 13.621955
Cl -6.708296 9.218833 11.145236
Cs -8.199029 11.267463 18.575393
Cl -6.708296 9.218833 16.098674
Cs -8.199029 11.267463 23.528831
Cl -6.708296 9.218833 21.052112
Cs 2.092249 3.072944 6.335648
Cl 3.582981 1.024315 3.858929
Cs 2.092249 3.072944 11.289086
Cl 3.582981 1.024315 8.812367
Cs 2.092249 3.072944 16.242524
Cl 3.582981 1.024315 13.765805
Cs -0.889216 7.170204 11.289086
Cl 0.601516 5.121574 8.812367
Cs -0.889216 7.170204 16.242524
Cl 0.601516 5.121574 13.765805
Cs -0.889216 7.170204 21.195962
Cl 0.601516 5.121574 18.719243
Cs -3.870681 11.267463 16.242524
Cl -2.379949 9.218833 13.765805
Cs -3.870681 11.267463 21.195962
Cl -2.379949 9.218833 18.719243
Cs -3.870681 11.267463 26.149400
Cl -2.379949 9.218833 23.672681
Cs 6.420596 3.072944 8.956217
Cl 7.911329 1.024315 6.479498
Cs 6.420596 3.072944 13.909655
Cl 7.911329 1.024315 11.432936
Cs 6.420596 3.072944 18.863093
Cl 7.911329 1.024315 16.386374
Cs 3.439131 7.170204 13.909655
Cl 4.929864 5.121574 11.432936
Cs 3.439131 7.170204 18.863093
Cl 4.929864 5.121574 16.386374
Cs 3.439131 7.170204 23.816531
Cl 4.929864 5.121574 21.339812
Cs 0.457666 11.267463 18.863093
Cl 1.948399 9.218833 16.386374
Cs 0.457666 11.267463 23.816531
Cl 1.948399 9.218833 21.339812
Cs 0.457666 11.267463 28.769969
Cl 1.948399 9.218833 26.293250
