54
A
Cs -2.682052 3.077979 3.381784
Cl -0.894017 1.025993 1.127261
Cs -2.682052 3.077979 7.890830
Cl -0.894017 1.025993 5.636307
Cs -2.682052 3.077979 12.399876
Cl -0.894017 1.025993 10.145353
Cs -6.258122 7.181951 7.890830
Cl -4.470087 5.129965 5.636307
Cs -6.258122 7.181951 12.399876
Cl -4.470087 5.129965 10.145353
Cs -6.258122 7.181951 16.908922
Cl -4.470087 5.129965 14.654399
Cs -9.834191 11.285923 12.399876
Cl -8.046156 9.233937 10.145353
Cs -9.834191 11.285923 16.908922
Cl -8.046156 9.233937 14.654399
Cs -9.834191 11.285923 21.417968
Cl -8.046156 9.233937 19.163445
Cs 1.531252 3.077979 6.787107
Cl 3.319287 1.025993 4.532584
Cs 1.531252 3.077979 11.296153
Cl 3.319287 1.025993 9.041630
Cs 1.531252 3.077979 15.805199
Cl 3.319287 1.025993 13.550676
Cs -2.044817 7.181951 11.296153
Cl -0.256783 5.129965 9.041630
Cs -2.044817 7.181951 15.805199
Cl -0.256783 5.129965 13.550676
Cs -2.044817 7.181951 20.314245
Cl -0.256783 5.129965 18.059722
Cs -5.620887 11.285923 15.805199
Cl -3.832852 9.233937 13.550676
Cs -5.620887 11.285923 20.314245
Cl -3.832852 9.233937 18.059722
Cs -5.620887 11.285923 24.823291
Cl -3.832852 9.233937 22.568768
Cs 5.744556 3.077979 10.192430
Cl 7.532591 1.025993 7.937907
Cs 5.744556 3.077979 14.701476
Cl 7.532591 1.025993 12.446953
Cs 5.744556 3.077979 19.210522
Cl 7.532591 1.025993 16.955999
Cs 2.168487 7.181951 14.701476
Cl 3.956522 5.129965 12.446953
Cs 2.168487 7.181951 19.210522
Cl 3.956522 5.129965 16.955999
Cs 2.168487 7.181951 23.719568
Cl 3.956522 5.129965 21.465045
Cs -1.407583 11.285923 19.210522
Cl 0.380452 9.233937 16.955999
Cs -1.407583 11.285923 23.719568
Cl 0.380452 9.233937 21.465045
Cs -1.407583 11.285923 28.228614
Cl 0.380452 9.233937 25.974091
