54
A
Cs -2.745760 3.078698 3.334171
Cl -0.915253 1.026233 1.111390
Cs -2.745760 3.078698 7.779732
Cl -0.915253 1.026233 5.556952
Cs -2.745760 3.078698 12.225294
Cl -0.915253 1.026233 10.002513
Cs -6.406773 7.183629 7.779732
Cl -4.576266 5.131164 5.556952
Cs -6.406773 7.183629 12.225294
Cl -4.576266 5.131164 10.002513
Cs -6.406773 7.183629 16.670855
Cl -4.576266 5.131164 14.448074
Cs -10.067786 11.288560 12.225294
Cl -8.237279 9.236095 10.002513
Cs -10.067786 11.288560 16.670855
Cl -8.237279 9.236095 14.448074
Cs -10.067786 11.288560 21.116416
Cl -8.237279 9.236095 18.893636
Cs 1.451110 3.078698 6.851602
Cl 3.281616 1.026233 4.628821
Cs 1.451110 3.078698 11.297163
Cl 3.281616 1.026233 9.074382
Cs 1.451110 3.078698 15.742724
Cl 3.281616 1.026233 13.519944
Cs -2.209903 7.183629 11.297163
Cl -0.379397 5.131164 9.074382
Cs -2.209903 7.183629 15.742724
Cl -0.379397 5.131164 13.519944
Cs -2.209903 7.183629 20.188286
Cl -0.379397 5.131164 17.965505
Cs -5.870916 11.288560 15.742724
Cl -4.040410 9.236095 13.519944
Cs -5.870916 11.288560 20.188286
Cl -4.040410 9.236095 17.965505
Cs -5.870916 11.288560 24.633847
Cl -4.040410 9.236095 22.411066
Cs 5.647979 3.078698 10.369032
Cl 7.478486 1.026233 8.146252
Cs 5.647979 3.078698 14.814594
Cl 7.478486 1.026233 12.591813
Cs 5.647979 3.078698 19.260155
Cl 7.478486 1.026233 17.037374
Cs 1.986966 7.183629 14.814594
Cl 3.817473 5.131164 12.591813
Cs 1.986966 7.183629 19.260155
Cl 3.817473 5.131164 17.037374
Cs 1.986966 7.183629 23.705716
Cl 3.817473 5.131164 21.482936
Cs -1.674047 11.288560 19.260155
Cl 0.156460 9.236095 17.037374
Cs -1.674047 11.288560 23.705716
Cl 0.156460 9.236095 21.482936
Cs -1.674047 11.288560 28.151278
Cl 0.156460 9.236095 25.928497
