54
A
Cs -2.773063 3.079007 3.313765
Cl -0.924354 1.026336 1.104588
Cs -2.773063 3.079007 7.732119
Cl -0.924354 1.026336 5.522942
Cs -2.773063 3.079007 12.150473
Cl -0.924354 1.026336 9.941296
Cs -6.470480 7.184349 7.732119
Cl -4.621772 5.131678 5.522942
Cs -6.470480 7.184349 12.150473
Cl -4.621772 5.131678 9.941296
Cs -6.470480 7.184349 16.568826
Cl -4.621772 5.131678 14.359649
Cs -10.167898 11.289691 12.150473
Cl -8.319189 9.237020 9.941296
Cs -10.167898 11.289691 16.568826
Cl -8.319189 9.237020 14.359649
Cs -10.167898 11.289691 20.987180
Cl -8.319189 9.237020 18.778003
Cs 1.416763 3.079007 6.879242
Cl 3.265472 1.026336 4.670065
Cs 1.416763 3.079007 11.297596
Cl 3.265472 1.026336 9.088419
Cs 1.416763 3.079007 15.715949
Cl 3.265472 1.026336 13.506773
Cs -2.280654 7.184349 11.297596
Cl -0.431946 5.131678 9.088419
Cs -2.280654 7.184349 15.715949
Cl -0.431946 5.131678 13.506773
Cs -2.280654 7.184349 20.134303
Cl -0.431946 5.131678 17.925126
Cs -5.978072 11.289691 15.715949
Cl -4.129363 9.237020 13.506773
Cs -5.978072 11.289691 20.134303
Cl -4.129363 9.237020 17.925126
Cs -5.978072 11.289691 24.552657
Cl -4.129363 9.237020 22.343480
Cs 5.606589 3.079007 10.444719
Cl 7.455298 1.026336 8.235542
Cs 5.606589 3.079007 14.863073
Cl 7.455298 1.026336 12.653896
Cs 5.606589 3.079007 19.281426
Cl 7.455298 1.026336 17.072249
Cs 1.909172 7.184349 14.863073
Cl 3.757880 5.131678 12.653896
Cs 1.909172 7.184349 19.281426
Cl 3.757880 5.131678 17.072249
Cs 1.909172 7.184349 23.699780
Cl 3.757880 5.131678 21.490603
Cs -1.788246 11.289691 19.281426
Cl 0.060463 9.237020 17.072249
Cs -1.788246 11.289691 23.699780
Cl 0.060463 9.237020 21.490603
Cs -1.788246 11.289691 28.118134
Cl 0.060463 9.237020 25.908957
