54
A
Cs -2.636547 3.077465 3.415794
Cl -0.878849 1.025822 1.138598
Cs -2.636547 3.077465 7.970186
Cl -0.878849 1.025822 5.692990
Cs -2.636547 3.077465 12.524578
Cl -0.878849 1.025822 10.247382
Cs -6.151942 7.180752 7.970186
Cl -4.394244 5.129109 5.692990
Cs -6.151942 7.180752 12.524578
Cl -4.394244 5.129109 10.247382
Cs -6.151942 7.180752 17.078970
Cl -4.394244 5.129109 14.801774
Cs -9.667338 11.284039 12.524578
Cl -7.909640 9.232396 10.247382
Cs -9.667338 11.284039 17.078970
Cl -7.909640 9.232396 14.801774
Cs -9.667338 11.284039 21.633362
Cl -7.909640 9.232396 19.356166
Cs 1.588497 3.077465 6.741040
Cl 3.346194 1.025822 4.463844
Cs 1.588497 3.077465 11.295432
Cl 3.346194 1.025822 9.018236
Cs 1.588497 3.077465 15.849824
Cl 3.346194 1.025822 13.572628
Cs -1.926899 7.180752 11.295432
Cl -0.169201 5.129109 9.018236
Cs -1.926899 7.180752 15.849824
Cl -0.169201 5.129109 13.572628
Cs -1.926899 7.180752 20.404216
Cl -0.169201 5.129109 18.127020
Cs -5.442294 11.284039 15.849824
Cl -3.684597 9.232396 13.572628
Cs -5.442294 11.284039 20.404216
Cl -3.684597 9.232396 18.127020
Cs -5.442294 11.284039 24.958608
Cl -3.684597 9.232396 22.681412
Cs 5.813540 3.077465 10.066286
Cl 7.571238 1.025822 7.789090
Cs 5.813540 3.077465 14.620678
Cl 7.571238 1.025822 12.343482
Cs 5.813540 3.077465 19.175070
Cl 7.571238 1.025822 16.897874
Cs 2.298144 7.180752 14.620678
Cl 4.055842 5.129109 12.343482
Cs 2.298144 7.180752 19.175070
Cl 4.055842 5.129109 16.897874
Cs 2.298144 7.180752 23.729462
Cl 4.055842 5.129109 21.452266
Cs -1.217251 11.284039 19.175070
Cl 0.540447 9.232396 16.897874
Cs -1.217251 11.284039 23.729462
Cl 0.540447 9.232396 21.452266
Cs -1.217251 11.284039 28.283854
Cl 0.540447 9.232396 26.006658
