54
A
Cs -2.545536 3.076438 3.483813
Cl -0.848512 1.025479 1.161271
Cs -2.545536 3.076438 8.128898
Cl -0.848512 1.025479 5.806355
Cs -2.545536 3.076438 12.773982
Cl -0.848512 1.025479 10.451440
Cs -5.939584 7.178355 8.128898
Cl -4.242560 5.127396 5.806355
Cs -5.939584 7.178355 12.773982
Cl -4.242560 5.127396 10.451440
Cs -5.939584 7.178355 17.419066
Cl -4.242560 5.127396 15.096524
Cs -9.333631 11.280272 12.773982
Cl -7.636607 9.229313 10.451440
Cs -9.333631 11.280272 17.419066
Cl -7.636607 9.229313 15.096524
Cs -9.333631 11.280272 22.064151
Cl -7.636607 9.229313 19.741608
Cs 1.702986 3.076438 6.648905
Cl 3.400010 1.025479 4.326363
Cs 1.702986 3.076438 11.293990
Cl 3.400010 1.025479 8.971448
Cs 1.702986 3.076438 15.939074
Cl 3.400010 1.025479 13.616532
Cs -1.691062 7.178355 11.293990
Cl 0.005962 5.127396 8.971448
Cs -1.691062 7.178355 15.939074
Cl 0.005962 5.127396 13.616532
Cs -1.691062 7.178355 20.584158
Cl 0.005962 5.127396 18.261616
Cs -5.085110 11.280272 15.939074
Cl -3.388086 9.229313 13.616532
Cs -5.085110 11.280272 20.584158
Cl -3.388086 9.229313 18.261616
Cs -5.085110 11.280272 25.229243
Cl -3.388086 9.229313 22.906701
Cs 5.951507 3.076438 9.813998
Cl 7.648531 1.025479 7.491455
Cs 5.951507 3.076438 14.459082
Cl 7.648531 1.025479 12.136540
Cs 5.951507 3.076438 19.104166
Cl 7.648531 1.025479 16.781624
Cs 2.557460 7.178355 14.459082
Cl 4.254484 5.127396 12.136540
Cs 2.557460 7.178355 19.104166
Cl 4.254484 5.127396 16.781624
Cs 2.557460 7.178355 23.749251
Cl 4.254484 5.127396 21.426708
Cs -0.836588 11.280272 19.104166
Cl 0.860436 9.229313 16.781624
Cs -0.836588 11.280272 23.749251
Cl 0.860436 9.229313 21.426708
Cs -0.836588 11.280272 28.394335
Cl 0.860436 9.229313 26.071793
