54
A
Cs -2.536435 3.076335 3.490615
Cl -0.845478 1.025445 1.163538
Cs -2.536435 3.076335 8.144769
Cl -0.845478 1.025445 5.817692
Cs -2.536435 3.076335 12.798922
Cl -0.845478 1.025445 10.471846
Cs -5.918348 7.178115 8.144769
Cl -4.227391 5.127225 5.817692
Cs -5.918348 7.178115 12.798922
Cl -4.227391 5.127225 10.471846
Cs -5.918348 7.178115 17.453076
Cl -4.227391 5.127225 15.125999
Cs -9.300261 11.279895 12.798922
Cl -7.609304 9.229005 10.471846
Cs -9.300261 11.279895 17.453076
Cl -7.609304 9.229005 15.125999
Cs -9.300261 11.279895 22.107229
Cl -7.609304 9.229005 19.780153
Cs 1.714435 3.076335 6.639692
Cl 3.405391 1.025445 4.312615
Cs 1.714435 3.076335 11.293846
Cl 3.405391 1.025445 8.966769
Cs 1.714435 3.076335 15.947999
Cl 3.405391 1.025445 13.620922
Cs -1.667478 7.178115 11.293846
Cl 0.023478 5.127225 8.966769
Cs -1.667478 7.178115 15.947999
Cl 0.023478 5.127225 13.620922
Cs -1.667478 7.178115 20.602153
Cl 0.023478 5.127225 18.275076
Cs -5.049391 11.279895 15.947999
Cl -3.358435 9.229005 13.620922
Cs -5.049391 11.279895 20.602153
Cl -3.358435 9.229005 18.275076
Cs -5.049391 11.279895 25.256306
Cl -3.358435 9.229005 22.929229
Cs 5.965304 3.076335 9.788769
Cl 7.656261 1.025445 7.461692
Cs 5.965304 3.076335 14.442922
Cl 7.656261 1.025445 12.115846
Cs 5.965304 3.076335 19.097076
Cl 7.656261 1.025445 16.769999
Cs 2.583391 7.178115 14.442922
Cl 4.274348 5.127225 12.115846
Cs 2.583391 7.178115 19.097076
Cl 4.274348 5.127225 16.769999
Cs 2.583391 7.178115 23.751229
Cl 4.274348 5.127225 21.424153
Cs -0.798522 11.279895 19.097076
Cl 0.892435 9.229005 16.769999
Cs -0.798522 11.279895 23.751229
Cl 0.892435 9.229005 21.424153
Cs -0.798522 11.279895 28.405383
Cl 0.892435 9.229005 26.078306
