54
A
Cs -2.818568 3.079520 3.279756
Cl -0.939523 1.026507 1.093252
Cs -2.818568 3.079520 7.652763
Cl -0.939523 1.026507 5.466259
Cs -2.818568 3.079520 12.025771
Cl -0.939523 1.026507 9.839267
Cs -6.576660 7.185547 7.652763
Cl -4.697614 5.132534 5.466259
Cs -6.576660 7.185547 12.025771
Cl -4.697614 5.132534 9.839267
Cs -6.576660 7.185547 16.398778
Cl -4.697614 5.132534 14.212275
Cs -10.334751 11.291574 12.025771
Cl -8.455705 9.238561 9.839267
Cs -10.334751 11.291574 16.398778
Cl -8.455705 9.238561 14.212275
Cs -10.334751 11.291574 20.771786
Cl -8.455705 9.238561 18.585282
Cs 1.359518 3.079520 6.925309
Cl 3.238564 1.026507 4.738806
Cs 1.359518 3.079520 11.298317
Cl 3.238564 1.026507 9.111813
Cs 1.359518 3.079520 15.671325
Cl 3.238564 1.026507 13.484821
Cs -2.398573 7.185547 11.298317
Cl -0.519527 5.132534 9.111813
Cs -2.398573 7.185547 15.671325
Cl -0.519527 5.132534 13.484821
Cs -2.398573 7.185547 20.044332
Cl -0.519527 5.132534 17.857828
Cs -6.156664 11.291574 15.671325
Cl -4.277618 9.238561 13.484821
Cs -6.156664 11.291574 20.044332
Cl -4.277618 9.238561 17.857828
Cs -6.156664 11.291574 24.417340
Cl -4.277618 9.238561 22.230836
Cs 5.537605 3.079520 10.570863
Cl 7.416651 1.026507 8.384359
Cs 5.537605 3.079520 14.943871
Cl 7.416651 1.026507 12.757367
Cs 5.537605 3.079520 19.316878
Cl 7.416651 1.026507 17.130375
Cs 1.779514 7.185547 14.943871
Cl 3.658560 5.132534 12.757367
Cs 1.779514 7.185547 19.316878
Cl 3.658560 5.132534 17.130375
Cs 1.779514 7.185547 23.689886
Cl 3.658560 5.132534 21.503382
Cs -1.978577 11.291574 19.316878
Cl -0.099532 9.238561 17.130375
Cs -1.978577 11.291574 23.689886
Cl -0.099532 9.238561 21.503382
Cs -1.978577 11.291574 28.062893
Cl -0.099532 9.238561 25.876390
