54
A
Cs -2.645648 3.077568 3.408992
Cl -0.881883 1.025856 1.136331
Cs -2.645648 3.077568 7.954315
Cl -0.881883 1.025856 5.681654
Cs -2.645648 3.077568 12.499638
Cl -0.881883 1.025856 10.226976
Cs -6.173178 7.180992 7.954315
Cl -4.409413 5.129280 5.681654
Cs -6.173178 7.180992 12.499638
Cl -4.409413 5.129280 10.226976
Cs -6.173178 7.180992 17.044961
Cl -4.409413 5.129280 14.772299
Cs -9.700709 11.284416 12.499638
Cl -7.936943 9.232704 10.226976
Cs -9.700709 11.284416 17.044961
Cl -7.936943 9.232704 14.772299
Cs -9.700709 11.284416 21.590284
Cl -7.936943 9.232704 19.317622
Cs 1.577048 3.077568 6.750254
Cl 3.340813 1.025856 4.477592
Cs 1.577048 3.077568 11.295576
Cl 3.340813 1.025856 9.022915
Cs 1.577048 3.077568 15.840899
Cl 3.340813 1.025856 13.568238
Cs -1.950483 7.180992 11.295576
Cl -0.186717 5.129280 9.022915
Cs -1.950483 7.180992 15.840899
Cl -0.186717 5.129280 13.568238
Cs -1.950483 7.180992 20.386222
Cl -0.186717 5.129280 18.113561
Cs -5.478013 11.284416 15.840899
Cl -3.714248 9.232704 13.568238
Cs -5.478013 11.284416 20.386222
Cl -3.714248 9.232704 18.113561
Cs -5.478013 11.284416 24.931545
Cl -3.714248 9.232704 22.658884
Cs 5.799743 3.077568 10.091515
Cl 7.563509 1.025856 7.818854
Cs 5.799743 3.077568 14.636838
Cl 7.563509 1.025856 12.364176
Cs 5.799743 3.077568 19.182161
Cl 7.563509 1.025856 16.909499
Cs 2.272213 7.180992 14.636838
Cl 4.035978 5.129280 12.364176
Cs 2.272213 7.180992 19.182161
Cl 4.035978 5.129280 16.909499
Cs 2.272213 7.180992 23.727484
Cl 4.035978 5.129280 21.454822
Cs -1.255317 11.284416 19.182161
Cl 0.508448 9.232704 16.909499
Cs -1.255317 11.284416 23.727484
Cl 0.508448 9.232704 21.454822
Cs -1.255317 11.284416 28.272806
Cl 0.508448 9.232704 26.000145
