54
A
Cs -3.000590 3.081575 3.143717
Cl -1.000197 1.027192 1.047906
Cs -3.000590 3.081575 7.335340
Cl -1.000197 1.027192 5.239529
Cs -3.000590 3.081575 11.526963
Cl -1.000197 1.027192 9.431152
Cs -7.001377 7.190342 7.335340
Cl -5.000984 5.135959 5.239529
Cs -7.001377 7.190342 11.526963
Cl -5.000984 5.135959 9.431152
Cs -7.001377 7.190342 15.718586
Cl -5.000984 5.135959 13.622775
Cs -11.002164 11.299109 11.526963
Cl -9.001771 9.244726 9.431152
Cs -11.002164 11.299109 15.718586
Cl -9.001771 9.244726 13.622775
Cs -11.002164 11.299109 19.910209
Cl -9.001771 9.244726 17.814398
Cs 1.130540 3.081575 7.109579
Cl 3.130934 1.027192 5.013767
Cs 1.130540 3.081575 11.301202
Cl 3.130934 1.027192 9.205390
Cs 1.130540 3.081575 15.492825
Cl 3.130934 1.027192 13.397013
Cs -2.870247 7.190342 11.301202
Cl -0.869853 5.135959 9.205390
Cs -2.870247 7.190342 15.492825
Cl -0.869853 5.135959 13.397013
Cs -2.870247 7.190342 19.684448
Cl -0.869853 5.135959 17.588636
Cs -6.871034 11.299109 15.492825
Cl -4.870640 9.244726 13.397013
Cs -6.871034 11.299109 19.684448
Cl -4.870640 9.244726 17.588636
Cs -6.871034 11.299109 23.876071
Cl -4.870640 9.244726 21.780259
Cs 5.261671 3.081575 11.075440
Cl 7.262064 1.027192 8.979629
Cs 5.261671 3.081575 15.267063
Cl 7.262064 1.027192 13.171252
Cs 5.261671 3.081575 19.458686
Cl 7.262064 1.027192 17.362875
Cs 1.260884 7.190342 15.267063
Cl 3.261277 5.135959 13.171252
Cs 1.260884 7.190342 19.458686
Cl 3.261277 5.135959 17.362875
Cs 1.260884 7.190342 23.650309
Cl 3.261277 5.135959 21.554498
Cs -2.739903 11.299109 19.458686
Cl -0.739510 9.244726 17.362875
Cs -2.739903 11.299109 23.650309
Cl -0.739510 9.244726 21.554498
Cs -2.739903 11.299109 27.841932
Cl -0.739510 9.244726 25.746121
