54
A
Cs -2.181492 3.072328 3.755890
Cl -0.727164 1.024109 1.251963
Cs -2.181492 3.072328 8.763743
Cl -0.727164 1.024109 6.259817
Cs -2.181492 3.072328 13.771597
Cl -0.727164 1.024109 11.267670
Cs -5.090149 7.168765 8.763743
Cl -3.635821 5.120546 6.259817
Cs -5.090149 7.168765 13.771597
Cl -3.635821 5.120546 11.267670
Cs -5.090149 7.168765 18.779450
Cl -3.635821 5.120546 16.275524
Cs -7.998805 11.265202 13.771597
Cl -6.544477 9.216984 11.267670
Cs -7.998805 11.265202 18.779450
Cl -6.544477 9.216984 16.275524
Cs -7.998805 11.265202 23.787304
Cl -6.544477 9.216984 21.283377
Cs 2.160942 3.072328 6.280367
Cl 3.615271 1.024109 3.776440
Cs 2.160942 3.072328 11.288220
Cl 3.615271 1.024109 8.784293
Cs 2.160942 3.072328 16.296074
Cl 3.615271 1.024109 13.792147
Cs -0.747714 7.168765 11.288220
Cl 0.706614 5.120546 8.784293
Cs -0.747714 7.168765 16.296074
Cl 0.706614 5.120546 13.792147
Cs -0.747714 7.168765 21.303927
Cl 0.706614 5.120546 18.800000
Cs -3.656371 11.265202 16.296074
Cl -2.202042 9.216984 13.792147
Cs -3.656371 11.265202 21.303927
Cl -2.202042 9.216984 18.800000
Cs -3.656371 11.265202 26.311780
Cl -2.202042 9.216984 23.807854
Cs 6.503377 3.072328 8.804843
Cl 7.957705 1.024109 6.300917
Cs 6.503377 3.072328 13.812697
Cl 7.957705 1.024109 11.308770
Cs 6.503377 3.072328 18.820550
Cl 7.957705 1.024109 16.316624
Cs 3.594721 7.168765 13.812697
Cl 5.049049 5.120546 11.308770
Cs 3.594721 7.168765 18.820550
Cl 5.049049 5.120546 16.316624
Cs 3.594721 7.168765 23.828404
Cl 5.049049 5.120546 21.324477
Cs 0.686064 11.265202 18.820550
Cl 2.140392 9.216984 16.316624
Cs 0.686064 11.265202 23.828404
Cl 2.140392 9.216984 21.324477
Cs 0.686064 11.265202 28.836257
Cl 2.140392 9.216984 26.332330
