54
A
Cs -2.591041 3.076952 3.449804
Cl -0.863680 1.025651 1.149935
Cs -2.591041 3.076952 8.049542
Cl -0.863680 1.025651 5.749673
Cs -2.591041 3.076952 12.649280
Cl -0.863680 1.025651 10.349411
Cs -6.045763 7.179554 8.049542
Cl -4.318402 5.128253 5.749673
Cs -6.045763 7.179554 12.649280
Cl -4.318402 5.128253 10.349411
Cs -6.045763 7.179554 17.249018
Cl -4.318402 5.128253 14.949149
Cs -9.500485 11.282156 12.649280
Cl -7.773124 9.230855 10.349411
Cs -9.500485 11.282156 17.249018
Cl -7.773124 9.230855 14.949149
Cs -9.500485 11.282156 21.848757
Cl -7.773124 9.230855 19.548887
Cs 1.645741 3.076952 6.694973
Cl 3.373102 1.025651 4.395104
Cs 1.645741 3.076952 11.294711
Cl 3.373102 1.025651 8.994842
Cs 1.645741 3.076952 15.894449
Cl 3.373102 1.025651 13.594580
Cs -1.808980 7.179554 11.294711
Cl -0.081620 5.128253 8.994842
Cs -1.808980 7.179554 15.894449
Cl -0.081620 5.128253 13.594580
Cs -1.808980 7.179554 20.494187
Cl -0.081620 5.128253 18.194318
Cs -5.263702 11.282156 15.894449
Cl -3.536341 9.230855 13.594580
Cs -5.263702 11.282156 20.494187
Cl -3.536341 9.230855 18.194318
Cs -5.263702 11.282156 25.093926
Cl -3.536341 9.230855 22.794057
Cs 5.882524 3.076952 9.940142
Cl 7.609885 1.025651 7.640273
Cs 5.882524 3.076952 14.539880
Cl 7.609885 1.025651 12.240011
Cs 5.882524 3.076952 19.139618
Cl 7.609885 1.025651 16.839749
Cs 2.427802 7.179554 14.539880
Cl 4.155163 5.128253 12.240011
Cs 2.427802 7.179554 19.139618
Cl 4.155163 5.128253 16.839749
Cs 2.427802 7.179554 23.739357
Cl 4.155163 5.128253 21.439487
Cs -1.026920 11.282156 19.139618
Cl 0.700441 9.230855 16.839749
Cs -1.026920 11.282156 23.739357
Cl 0.700441 9.230855 21.439487
Cs -1.026920 11.282156 28.339095
Cl 0.700441 9.230855 26.039226
