54
A
Cs -2.490929 3.075821 3.524625
Cl -0.830310 1.025274 1.174875
Cs -2.490929 3.075821 8.224124
Cl -0.830310 1.025274 5.874375
Cs -2.490929 3.075821 12.923624
Cl -0.830310 1.025274 10.573874
Cs -5.812168 7.176916 8.224124
Cl -4.151549 5.126369 5.874375
Cs -5.812168 7.176916 12.923624
Cl -4.151549 5.126369 10.573874
Cs -5.812168 7.176916 17.623124
Cl -4.151549 5.126369 15.273374
Cs -9.133407 11.278012 12.923624
Cl -7.472788 9.227464 10.573874
Cs -9.133407 11.278012 17.623124
Cl -7.472788 9.227464 15.273374
Cs -9.133407 11.278012 22.322624
Cl -7.472788 9.227464 19.972874
Cs 1.771679 3.075821 6.593625
Cl 3.432299 1.025274 4.243875
Cs 1.771679 3.075821 11.293124
Cl 3.432299 1.025274 8.943374
Cs 1.771679 3.075821 15.992624
Cl 3.432299 1.025274 13.642874
Cs -1.549560 7.176916 11.293124
Cl 0.111060 5.126369 8.943374
Cs -1.549560 7.176916 15.992624
Cl 0.111060 5.126369 13.642874
Cs -1.549560 7.176916 20.692124
Cl 0.111060 5.126369 18.342374
Cs -4.870799 11.278012 15.992624
Cl -3.210179 9.227464 13.642874
Cs -4.870799 11.278012 20.692124
Cl -3.210179 9.227464 18.342374
Cs -4.870799 11.278012 25.391623
Cl -3.210179 9.227464 23.041874
Cs 6.034288 3.075821 9.662624
Cl 7.694907 1.025274 7.312875
Cs 6.034288 3.075821 14.362124
Cl 7.694907 1.025274 12.012374
Cs 6.034288 3.075821 19.061624
Cl 7.694907 1.025274 16.711874
Cs 2.713049 7.176916 14.362124
Cl 4.373668 5.126369 12.012374
Cs 2.713049 7.176916 19.061624
Cl 4.373668 5.126369 16.711874
Cs 2.713049 7.176916 23.761124
Cl 4.373668 5.126369 21.411374
Cs -0.608190 11.278012 19.061624
Cl 1.052429 9.227464 16.711874
Cs -0.608190 11.278012 23.761124
Cl 1.052429 9.227464 21.411374
Cs -0.608190 11.278012 28.460623
Cl 1.052429 9.227464 26.110873
