54
A
Cs -2.299806 3.073664 3.667465
Cl -0.766602 1.024555 1.222488
Cs -2.299806 3.073664 8.557419
Cl -0.766602 1.024555 6.112442
Cs -2.299806 3.073664 13.447372
Cl -0.766602 1.024555 11.002395
Cs -5.366215 7.171882 8.557419
Cl -3.833011 5.122773 6.112442
Cs -5.366215 7.171882 13.447372
Cl -3.833011 5.122773 11.002395
Cs -5.366215 7.171882 18.337325
Cl -3.833011 5.122773 15.892349
Cs -8.432624 11.270100 13.447372
Cl -6.899419 9.220991 11.002395
Cs -8.432624 11.270100 18.337325
Cl -6.899419 9.220991 15.892349
Cs -8.432624 11.270100 23.227279
Cl -6.899419 9.220991 20.782302
Cs 2.012106 3.073664 6.400142
Cl 3.545311 1.024555 3.955165
Cs 2.012106 3.073664 11.290095
Cl 3.545311 1.024555 8.845119
Cs 2.012106 3.073664 16.180049
Cl 3.545311 1.024555 13.735072
Cs -1.054302 7.171882 11.290095
Cl 0.478902 5.122773 8.845119
Cs -1.054302 7.171882 16.180049
Cl 0.478902 5.122773 13.735072
Cs -1.054302 7.171882 21.070002
Cl 0.478902 5.122773 18.625025
Cs -4.120711 11.270100 16.180049
Cl -2.587506 9.220991 13.735072
Cs -4.120711 11.270100 21.070002
Cl -2.587506 9.220991 18.625025
Cs -4.120711 11.270100 25.959956
Cl -2.587506 9.220991 23.514979
Cs 6.324019 3.073664 9.132819
Cl 7.857224 1.024555 6.687842
Cs 6.324019 3.073664 14.022772
Cl 7.857224 1.024555 11.577795
Cs 6.324019 3.073664 18.912725
Cl 7.857224 1.024555 16.467749
Cs 3.257611 7.171882 14.022772
Cl 4.790815 5.122773 11.577795
Cs 3.257611 7.171882 18.912725
Cl 4.790815 5.122773 16.467749
Cs 3.257611 7.171882 23.802679
Cl 4.790815 5.122773 21.357702
Cs 0.191202 11.270100 18.912725
Cl 1.724406 9.220991 16.467749
Cs 0.191202 11.270100 23.802679
Cl 1.724406 9.220991 21.357702
Cs 0.191202 11.270100 28.692632
Cl 1.724406 9.220991 26.247656
