54
A
Cs -2.172391 3.072225 3.762692
Cl -0.724130 1.024075 1.254231
Cs -2.172391 3.072225 8.779615
Cl -0.724130 1.024075 6.271153
Cs -2.172391 3.072225 13.796537
Cl -0.724130 1.024075 11.288076
Cs -5.068913 7.168525 8.779615
Cl -3.620652 5.120375 6.271153
Cs -5.068913 7.168525 13.796537
Cl -3.620652 5.120375 11.288076
Cs -5.068913 7.168525 18.813460
Cl -3.620652 5.120375 16.304998
Cs -7.965434 11.264825 13.796537
Cl -6.517174 9.216675 11.288076
Cs -7.965434 11.264825 18.813460
Cl -6.517174 9.216675 16.304998
Cs -7.965434 11.264825 23.830382
Cl -6.517174 9.216675 21.321921
Cs 2.172391 3.072225 6.271153
Cl 3.620652 1.024075 3.762692
Cs 2.172391 3.072225 11.288076
Cl 3.620652 1.024075 8.779615
Cs 2.172391 3.072225 16.304998
Cl 3.620652 1.024075 13.796537
Cs -0.724130 7.168525 11.288076
Cl 0.724130 5.120375 8.779615
Cs -0.724130 7.168525 16.304998
Cl 0.724130 5.120375 13.796537
Cs -0.724130 7.168525 21.321921
Cl 0.724130 5.120375 18.813460
Cs -3.620652 11.264825 16.304998
Cl -2.172391 9.216675 13.796537
Cs -3.620652 11.264825 21.321921
Cl -2.172391 9.216675 18.813460
Cs -3.620652 11.264825 26.338844
Cl -2.172391 9.216675 23.830382
Cs 6.517174 3.072225 8.779615
Cl 7.965434 1.024075 6.271153
Cs 6.517174 3.072225 13.796537
Cl 7.965434 1.024075 11.288076
Cs 6.517174 3.072225 18.813460
Cl 7.965434 1.024075 16.304998
Cs 3.620652 7.168525 13.796537
Cl 5.068913 5.120375 11.288076
Cs 3.620652 7.168525 18.813460
Cl 5.068913 5.120375 16.304998
Cs 3.620652 7.168525 23.830382
Cl 5.068913 5.120375 21.321921
Cs 0.724130 11.264825 18.813460
Cl 2.172391 9.216675 16.304998
Cs 0.724130 11.264825 23.830382
Cl 2.172391 9.216675 21.321921
Cs 0.724130 11.264825 28.847305
Cl 2.172391 9.216675 26.338844
