27
A
Fe 0.000000 0.000000 0.000000
Fe 0.000000 0.000000 0.754782
Fe 0.000000 0.000000 1.509565
Fe 0.265361 0.616277 -0.420692
Fe 0.265361 0.616277 0.334090
Fe 0.265361 0.616277 1.088872
Fe 0.530723 1.232554 -0.841385
Fe 0.530723 1.232554 -0.086603
Fe 0.530723 1.232554 0.668180
Fe 0.673610 0.000000 0.420692
Fe 0.673610 0.000000 1.175475
Fe 0.673610 0.000000 1.930257
Fe 0.938971 0.616277 0.000000
Fe 0.938971 0.616277 0.754782
Fe 0.938971 0.616277 1.509565
Fe 1.204332 1.232554 -0.420692
Fe 1.204332 1.232554 0.334090
Fe 1.204332 1.232554 1.088872
Fe 1.347219 0.000000 0.841385
Fe 1.347219 0.000000 1.596167
Fe 1.347219 0.000000 2.350950
Fe 1.612581 0.616277 0.420692
Fe 1.612581 0.616277 1.175475
Fe 1.612581 0.616277 1.930257
Fe 1.877942 1.232554 0.000000
Fe 1.877942 1.232554 0.754782
Fe 1.877942 1.232554 1.509565
