27
A
Fe 0.000000 0.000000 0.000000
Fe 0.000000 0.000000 0.762728
Fe 0.000000 0.000000 1.525457
Fe 0.275568 0.622765 -0.431882
Fe 0.275568 0.622765 0.330846
Fe 0.275568 0.622765 1.093574
Fe 0.551135 1.245530 -0.863765
Fe 0.551135 1.245530 -0.101036
Fe 0.551135 1.245530 0.661692
Fe 0.683816 0.000000 0.431882
Fe 0.683816 0.000000 1.194611
Fe 0.683816 0.000000 1.957339
Fe 0.959383 0.622765 0.000000
Fe 0.959383 0.622765 0.762728
Fe 0.959383 0.622765 1.525457
Fe 1.234951 1.245530 -0.431882
Fe 1.234951 1.245530 0.330846
Fe 1.234951 1.245530 1.093574
Fe 1.367632 0.000000 0.863765
Fe 1.367632 0.000000 1.626493
Fe 1.367632 0.000000 2.389221
Fe 1.643199 0.622765 0.431882
Fe 1.643199 0.622765 1.194611
Fe 1.643199 0.622765 1.957339
Fe 1.918767 1.245530 0.000000
Fe 1.918767 1.245530 0.762728
Fe 1.918767 1.245530 1.525457
