27
A
Fe 0.000000 0.000000 0.000000
Fe 0.000000 0.000000 0.711874
Fe 0.000000 0.000000 1.423749
Fe 0.210248 0.581243 -0.360267
Fe 0.210248 0.581243 0.351607
Fe 0.210248 0.581243 1.063481
Fe 0.420496 1.162486 -0.720535
Fe 0.420496 1.162486 -0.008660
Fe 0.420496 1.162486 0.703214
Fe 0.618496 0.000000 0.360267
Fe 0.618496 0.000000 1.072142
Fe 0.618496 0.000000 1.784016
Fe 0.828744 0.581243 0.000000
Fe 0.828744 0.581243 0.711874
Fe 0.828744 0.581243 1.423749
Fe 1.038992 1.162486 -0.360267
Fe 1.038992 1.162486 0.351607
Fe 1.038992 1.162486 1.063481
Fe 1.236992 0.000000 0.720535
Fe 1.236992 0.000000 1.432409
Fe 1.236992 0.000000 2.144283
Fe 1.447240 0.581243 0.360267
Fe 1.447240 0.581243 1.072142
Fe 1.447240 0.581243 1.784016
Fe 1.657488 1.162486 0.000000
Fe 1.657488 1.162486 0.711874
Fe 1.657488 1.162486 1.423749
