27
A
Fe 0.000000 0.000000 0.000000
Fe 0.000000 0.000000 0.791334
Fe 0.000000 0.000000 1.582667
Fe 0.312310 0.646121 -0.472166
Fe 0.312310 0.646121 0.319168
Fe 0.312310 0.646121 1.110502
Fe 0.624620 1.292242 -0.944331
Fe 0.624620 1.292242 -0.152998
Fe 0.624620 1.292242 0.638336
Fe 0.720558 0.000000 0.472166
Fe 0.720558 0.000000 1.263499
Fe 0.720558 0.000000 2.054833
Fe 1.032868 0.646121 0.000000
Fe 1.032868 0.646121 0.791334
Fe 1.032868 0.646121 1.582667
Fe 1.345178 1.292242 -0.472166
Fe 1.345178 1.292242 0.319168
Fe 1.345178 1.292242 1.110502
Fe 1.441116 0.000000 0.944331
Fe 1.441116 0.000000 1.735665
Fe 1.441116 0.000000 2.526999
Fe 1.753426 0.646121 0.472166
Fe 1.753426 0.646121 1.263499
Fe 1.753426 0.646121 2.054833
Fe 2.065736 1.292242 0.000000
Fe 2.065736 1.292242 0.791334
Fe 2.065736 1.292242 1.582667
