27
A
Fe 0.000000 0.000000 0.000000
Fe 0.000000 0.000000 0.845366
Fe 0.000000 0.000000 1.690732
Fe 0.381712 0.690238 -0.548257
Fe 0.381712 0.690238 0.297109
Fe 0.381712 0.690238 1.142475
Fe 0.763424 1.380477 -1.096513
Fe 0.763424 1.380477 -0.251147
Fe 0.763424 1.380477 0.594219
Fe 0.789960 0.000000 0.548257
Fe 0.789960 0.000000 1.393623
Fe 0.789960 0.000000 2.238989
Fe 1.171673 0.690238 0.000000
Fe 1.171673 0.690238 0.845366
Fe 1.171673 0.690238 1.690732
Fe 1.553385 1.380477 -0.548257
Fe 1.553385 1.380477 0.297109
Fe 1.553385 1.380477 1.142475
Fe 1.579921 0.000000 1.096513
Fe 1.579921 0.000000 1.941879
Fe 1.579921 0.000000 2.787245
Fe 1.961633 0.690238 0.548257
Fe 1.961633 0.690238 1.393623
Fe 1.961633 0.690238 2.238989
Fe 2.343345 1.380477 0.000000
Fe 2.343345 1.380477 0.845366
Fe 2.343345 1.380477 1.690732
