27
A
Fe 0.000000 0.000000 0.000000
Fe 0.000000 0.000000 0.797690
Fe 0.000000 0.000000 1.595381
Fe 0.320475 0.651311 -0.481118
Fe 0.320475 0.651311 0.316573
Fe 0.320475 0.651311 1.114263
Fe 0.640950 1.302623 -0.962235
Fe 0.640950 1.302623 -0.164545
Fe 0.640950 1.302623 0.633146
Fe 0.728723 0.000000 0.481118
Fe 0.728723 0.000000 1.278808
Fe 0.728723 0.000000 2.076498
Fe 1.049198 0.651311 0.000000
Fe 1.049198 0.651311 0.797690
Fe 1.049198 0.651311 1.595381
Fe 1.369673 1.302623 -0.481118
Fe 1.369673 1.302623 0.316573
Fe 1.369673 1.302623 1.114263
Fe 1.457446 0.000000 0.962235
Fe 1.457446 0.000000 1.759926
Fe 1.457446 0.000000 2.557616
Fe 1.777921 0.651311 0.481118
Fe 1.777921 0.651311 1.278808
Fe 1.777921 0.651311 2.076498
Fe 2.098396 1.302623 0.000000
Fe 2.098396 1.302623 0.797690
Fe 2.098396 1.302623 1.595381
