27
A
Fe 0.000000 0.000000 0.000000
Fe 0.000000 0.000000 0.807226
Fe 0.000000 0.000000 1.614451
Fe 0.332722 0.659097 -0.494545
Fe 0.332722 0.659097 0.312680
Fe 0.332722 0.659097 1.119906
Fe 0.665445 1.318194 -0.989091
Fe 0.665445 1.318194 -0.181865
Fe 0.665445 1.318194 0.625360
Fe 0.740971 0.000000 0.494545
Fe 0.740971 0.000000 1.301771
Fe 0.740971 0.000000 2.108996
Fe 1.073693 0.659097 0.000000
Fe 1.073693 0.659097 0.807226
Fe 1.073693 0.659097 1.614451
Fe 1.406415 1.318194 -0.494545
Fe 1.406415 1.318194 0.312680
Fe 1.406415 1.318194 1.119906
Fe 1.481941 0.000000 0.989091
Fe 1.481941 0.000000 1.796316
Fe 1.481941 0.000000 2.603542
Fe 1.814664 0.659097 0.494545
Fe 1.814664 0.659097 1.301771
Fe 1.814664 0.659097 2.108996
Fe 2.147386 1.318194 0.000000
Fe 2.147386 1.318194 0.807226
Fe 2.147386 1.318194 1.614451
