27
A
Fe 0.000000 0.000000 0.000000
Fe 0.000000 0.000000 0.738891
Fe 0.000000 0.000000 1.477781
Fe 0.244949 0.603302 -0.398313
Fe 0.244949 0.603302 0.340578
Fe 0.244949 0.603302 1.079468
Fe 0.489898 1.206603 -0.796626
Fe 0.489898 1.206603 -0.057735
Fe 0.489898 1.206603 0.681155
Fe 0.653197 0.000000 0.398313
Fe 0.653197 0.000000 1.137203
Fe 0.653197 0.000000 1.876094
Fe 0.898146 0.603302 0.000000
Fe 0.898146 0.603302 0.738891
Fe 0.898146 0.603302 1.477781
Fe 1.143095 1.206603 -0.398313
Fe 1.143095 1.206603 0.340578
Fe 1.143095 1.206603 1.079468
Fe 1.306395 0.000000 0.796626
Fe 1.306395 0.000000 1.535516
Fe 1.306395 0.000000 2.274407
Fe 1.551344 0.603302 0.398313
Fe 1.551344 0.603302 1.137203
Fe 1.551344 0.603302 1.876094
Fe 1.796292 1.206603 0.000000
Fe 1.796292 1.206603 0.738891
Fe 1.796292 1.206603 1.477781
