27
A
Fe 0.000000 0.000000 0.000000
Fe 0.000000 0.000000 0.784977
Fe 0.000000 0.000000 1.569954
Fe 0.304145 0.640931 -0.463214
Fe 0.304145 0.640931 0.321763
Fe 0.304145 0.640931 1.106740
Fe 0.608290 1.281862 -0.926428
Fe 0.608290 1.281862 -0.141451
Fe 0.608290 1.281862 0.643526
Fe 0.712393 0.000000 0.463214
Fe 0.712393 0.000000 1.248191
Fe 0.712393 0.000000 2.033168
Fe 1.016538 0.640931 0.000000
Fe 1.016538 0.640931 0.784977
Fe 1.016538 0.640931 1.569954
Fe 1.320683 1.281862 -0.463214
Fe 1.320683 1.281862 0.321763
Fe 1.320683 1.281862 1.106740
Fe 1.424787 0.000000 0.926428
Fe 1.424787 0.000000 1.711405
Fe 1.424787 0.000000 2.496382
Fe 1.728932 0.640931 0.463214
Fe 1.728932 0.640931 1.248191
Fe 1.728932 0.640931 2.033168
Fe 2.033076 1.281862 0.000000
Fe 2.033076 1.281862 0.784977
Fe 2.033076 1.281862 1.569954
