27
A
Fe 0.000000 0.000000 0.000000
Fe 0.000000 0.000000 0.804047
Fe 0.000000 0.000000 1.608094
Fe 0.328640 0.656502 -0.490069
Fe 0.328640 0.656502 0.313978
Fe 0.328640 0.656502 1.118025
Fe 0.657280 1.313003 -0.980139
Fe 0.657280 1.313003 -0.176092
Fe 0.657280 1.313003 0.627955
Fe 0.736888 0.000000 0.490069
Fe 0.736888 0.000000 1.294117
Fe 0.736888 0.000000 2.098164
Fe 1.065528 0.656502 0.000000
Fe 1.065528 0.656502 0.804047
Fe 1.065528 0.656502 1.608094
Fe 1.394168 1.313003 -0.490069
Fe 1.394168 1.313003 0.313978
Fe 1.394168 1.313003 1.118025
Fe 1.473776 0.000000 0.980139
Fe 1.473776 0.000000 1.784186
Fe 1.473776 0.000000 2.588233
Fe 1.802416 0.656502 0.490069
Fe 1.802416 0.656502 1.294117
Fe 1.802416 0.656502 2.098164
Fe 2.131056 1.313003 0.000000
Fe 2.131056 1.313003 0.804047
Fe 2.131056 1.313003 1.608094
