27
A
Fe 0.000000 0.000000 0.000000
Fe 0.000000 0.000000 0.756372
Fe 0.000000 0.000000 1.512743
Fe 0.267403 0.617575 -0.422930
Fe 0.267403 0.617575 0.333441
Fe 0.267403 0.617575 1.089813
Fe 0.534805 1.235150 -0.845861
Fe 0.534805 1.235150 -0.089489
Fe 0.534805 1.235150 0.666882
Fe 0.675651 0.000000 0.422930
Fe 0.675651 0.000000 1.179302
Fe 0.675651 0.000000 1.935674
Fe 0.943054 0.617575 0.000000
Fe 0.943054 0.617575 0.756372
Fe 0.943054 0.617575 1.512743
Fe 1.210456 1.235150 -0.422930
Fe 1.210456 1.235150 0.333441
Fe 1.210456 1.235150 1.089813
Fe 1.351302 0.000000 0.845861
Fe 1.351302 0.000000 1.602232
Fe 1.351302 0.000000 2.358604
Fe 1.618704 0.617575 0.422930
Fe 1.618704 0.617575 1.179302
Fe 1.618704 0.617575 1.935674
Fe 1.886107 1.235150 0.000000
Fe 1.886107 1.235150 0.756372
Fe 1.886107 1.235150 1.512743
