27
A
Fe 0.000000 0.000000 0.000000
Fe 0.000000 0.000000 0.858079
Fe 0.000000 0.000000 1.716159
Fe 0.398042 0.700619 -0.566160
Fe 0.398042 0.700619 0.291919
Fe 0.398042 0.700619 1.149999
Fe 0.796084 1.401238 -1.132321
Fe 0.796084 1.401238 -0.274241
Fe 0.796084 1.401238 0.583838
Fe 0.806290 0.000000 0.566160
Fe 0.806290 0.000000 1.424240
Fe 0.806290 0.000000 2.282319
Fe 1.204332 0.700619 0.000000
Fe 1.204332 0.700619 0.858079
Fe 1.204332 0.700619 1.716159
Fe 1.602375 1.401238 -0.566160
Fe 1.602375 1.401238 0.291919
Fe 1.602375 1.401238 1.149999
Fe 1.612581 0.000000 1.132321
Fe 1.612581 0.000000 1.990400
Fe 1.612581 0.000000 2.848480
Fe 2.010623 0.700619 0.566160
Fe 2.010623 0.700619 1.424240
Fe 2.010623 0.700619 2.282319
Fe 2.408665 1.401238 0.000000
Fe 2.408665 1.401238 0.858079
Fe 2.408665 1.401238 1.716159
