27
A
Fe 0.000000 0.000000 0.000000
Fe 0.000000 0.000000 0.729355
Fe 0.000000 0.000000 1.458711
Fe 0.232702 0.595516 -0.384885
Fe 0.232702 0.595516 0.344470
Fe 0.232702 0.595516 1.073826
Fe 0.465403 1.191032 -0.769770
Fe 0.465403 1.191032 -0.040415
Fe 0.465403 1.191032 0.688941
Fe 0.640950 0.000000 0.384885
Fe 0.640950 0.000000 1.114240
Fe 0.640950 0.000000 1.843596
Fe 0.873651 0.595516 0.000000
Fe 0.873651 0.595516 0.729355
Fe 0.873651 0.595516 1.458711
Fe 1.106353 1.191032 -0.384885
Fe 1.106353 1.191032 0.344470
Fe 1.106353 1.191032 1.073826
Fe 1.281900 0.000000 0.769770
Fe 1.281900 0.000000 1.499125
Fe 1.281900 0.000000 2.228481
Fe 1.514601 0.595516 0.384885
Fe 1.514601 0.595516 1.114240
Fe 1.514601 0.595516 1.843596
Fe 1.747303 1.191032 0.000000
Fe 1.747303 1.191032 0.729355
Fe 1.747303 1.191032 1.458711
