27
A
Fe 0.000000 0.000000 0.000000
Fe 0.000000 0.000000 0.824707
Fe 0.000000 0.000000 1.649413
Fe 0.355176 0.673370 -0.519163
Fe 0.355176 0.673370 0.305543
Fe 0.355176 0.673370 1.130250
Fe 0.710352 1.346740 -1.038326
Fe 0.710352 1.346740 -0.213620
Fe 0.710352 1.346740 0.611087
Fe 0.763424 0.000000 0.519163
Fe 0.763424 0.000000 1.343870
Fe 0.763424 0.000000 2.168576
Fe 1.118600 0.673370 0.000000
Fe 1.118600 0.673370 0.824707
Fe 1.118600 0.673370 1.649413
Fe 1.473776 1.346740 -0.519163
Fe 1.473776 1.346740 0.305543
Fe 1.473776 1.346740 1.130250
Fe 1.526849 0.000000 1.038326
Fe 1.526849 0.000000 1.863033
Fe 1.526849 0.000000 2.687739
Fe 1.882025 0.673370 0.519163
Fe 1.882025 0.673370 1.343870
Fe 1.882025 0.673370 2.168576
Fe 2.237201 1.346740 0.000000
Fe 2.237201 1.346740 0.824707
Fe 2.237201 1.346740 1.649413
