54
A
Si 0.585704 0.414155 3.645460
C -0.505278 2.074128 3.577432
Si 0.585704 0.414155 6.534616
C -0.505278 2.074128 6.466589
Si 0.585704 0.414155 9.423773
C -0.505278 2.074128 9.355745
Si -1.706655 3.656041 6.256012
C -2.797637 5.316014 6.187984
Si -1.706655 3.656041 9.145168
C -2.797637 5.316014 9.077140
Si -1.706655 3.656041 12.034325
C -2.797637 5.316014 11.966297
Si -3.999014 6.897926 8.866563
C -5.089996 8.557899 8.798536
Si -3.999014 6.897926 11.755720
C -5.089996 8.557899 11.687692
Si -3.999014 6.897926 14.644877
C -5.089996 8.557899 14.576849
Si 2.958490 -0.339446 5.368643
C 1.867507 1.320527 5.300615
Si 2.958490 -0.339446 8.257800
C 1.867507 1.320527 8.189772
Si 2.958490 -0.339446 11.146956
C 1.867507 1.320527 11.078929
Si 0.666131 2.902439 7.979195
C -0.424852 4.562412 7.911167
Si 0.666131 2.902439 10.868352
C -0.424852 4.562412 10.800324
Si 0.666131 2.902439 13.757508
C -0.424852 4.562412 13.689480
Si -1.626229 6.144325 10.589747
C -2.717211 7.804298 10.521719
Si -1.626229 6.144325 13.478903
C -2.717211 7.804298 13.410876
Si -1.626229 6.144325 16.368060
C -2.717211 7.804298 16.300032
Si 5.331275 -1.093047 7.091826
C 4.240293 0.566926 7.023799
Si 5.331275 -1.093047 9.980983
C 4.240293 0.566926 9.912955
Si 5.331275 -1.093047 12.870140
C 4.240293 0.566926 12.802112
Si 3.038916 2.148838 9.702378
C 1.947934 3.808811 9.634351
Si 3.038916 2.148838 12.591535
C 1.947934 3.808811 12.523507
Si 3.038916 2.148838 15.480691
C 1.947934 3.808811 15.412664
Si 0.746557 5.390723 12.312930
C -0.344425 7.050696 12.244902
Si 0.746557 5.390723 15.202087
C -0.344425 7.050696 15.134059
Si 0.746557 5.390723 18.091243
C -0.344425 7.050696 18.023216
