54
A
Si 0.452607 0.320041 3.863838
C 0.423146 2.206649 3.863838
Si 0.452607 0.320041 6.954909
C 0.423146 2.206649 6.954909
Si 0.452607 0.320041 10.045980
C 0.423146 2.206649 10.045980
Si -1.345745 2.863294 6.954909
C -1.375205 4.749902 6.954909
Si -1.345745 2.863294 10.045980
C -1.375205 4.749902 10.045980
Si -1.345745 2.863294 13.137051
C -1.375205 4.749902 13.137050
Si -3.144096 5.406547 10.045980
C -3.173557 7.293155 10.045980
Si -3.144096 5.406547 13.137051
C -3.173557 7.293155 13.137051
Si -3.144096 5.406547 16.228122
C -3.173557 7.293155 16.228121
Si 3.126711 0.303479 5.409373
C 3.097250 2.190086 5.409373
Si 3.126711 0.303479 8.500444
C 3.097250 2.190086 8.500444
Si 3.126711 0.303479 11.591515
C 3.097250 2.190086 11.591515
Si 1.328359 2.846731 8.500444
C 1.298899 4.733339 8.500444
Si 1.328359 2.846731 11.591515
C 1.298899 4.733339 11.591515
Si 1.328359 2.846731 14.682586
C 1.298899 4.733339 14.682585
Si -0.469992 5.389984 11.591515
C -0.499453 7.276592 11.591515
Si -0.469992 5.389984 14.682586
C -0.499453 7.276592 14.682585
Si -0.469992 5.389984 17.773656
C -0.499453 7.276592 17.773656
Si 5.800815 0.286916 6.954908
C 5.771354 2.173524 6.954908
Si 5.800815 0.286916 10.045979
C 5.771354 2.173524 10.045979
Si 5.800815 0.286916 13.137050
C 5.771354 2.173524 13.137049
Si 4.002463 2.830169 10.045979
C 3.973003 4.716777 10.045979
Si 4.002463 2.830169 13.137050
C 3.973003 4.716777 13.137050
Si 4.002463 2.830169 16.228121
C 3.973003 4.716777 16.228120
Si 2.204112 5.373422 13.137050
C 2.174651 7.260030 13.137050
Si 2.204112 5.373422 16.228121
C 2.174651 7.260030 16.228120
Si 2.204112 5.373422 19.319191
C 2.174651 7.260030 19.319191
