54
A
Si 0.584077 0.413005 3.631297
C -0.441097 2.078300 3.631297
Si 0.584077 0.413005 6.536334
C -0.441097 2.078300 6.536334
Si 0.584077 0.413005 9.441372
C -0.441097 2.078300 9.441372
Si -1.669428 3.599941 6.536334
C -2.694601 5.265237 6.536334
Si -1.669428 3.599941 9.441372
C -2.694601 5.265237 9.441372
Si -1.669428 3.599941 12.346409
C -2.694601 5.265237 12.346409
Si -3.922932 6.786878 9.441372
C -4.948106 8.452173 9.441372
Si -3.922932 6.786878 12.346409
C -4.948106 8.452173 12.346409
Si -3.922932 6.786878 15.251447
C -4.948106 8.452173 15.251447
Si 2.980562 -0.282627 5.083816
C 1.955388 1.382668 5.083816
Si 2.980562 -0.282627 7.988853
C 1.955388 1.382668 7.988853
Si 2.980562 -0.282627 10.893891
C 1.955388 1.382668 10.893891
Si 0.727057 2.904309 7.988853
C -0.298117 4.569605 7.988853
Si 0.727057 2.904309 10.893891
C -0.298117 4.569605 10.893891
Si 0.727057 2.904309 13.798928
C -0.298117 4.569605 13.798928
Si -1.526448 6.091246 10.893891
C -2.551621 7.756541 10.893891
Si -1.526448 6.091246 13.798928
C -2.551621 7.756541 13.798928
Si -1.526448 6.091246 16.703966
C -2.551621 7.756541 16.703966
Si 5.377046 -0.978259 6.536335
C 4.351872 0.687036 6.536335
Si 5.377046 -0.978259 9.441372
C 4.351872 0.687036 9.441372
Si 5.377046 -0.978259 12.346410
C 4.351872 0.687036 12.346410
Si 3.123542 2.208677 9.441372
C 2.098368 3.873973 9.441372
Si 3.123542 2.208677 12.346410
C 2.098368 3.873973 12.346410
Si 3.123542 2.208677 15.251447
C 2.098368 3.873973 15.251447
Si 0.870037 5.395614 12.346410
C -0.155137 7.060909 12.346410
Si 0.870037 5.395614 15.251447
C -0.155137 7.060909 15.251447
Si 0.870037 5.395614 18.156485
C -0.155137 7.060909 18.156485
