54
A
Si 0.572961 0.405145 3.682343
C -0.269128 2.093928 3.682343
Si 0.572961 0.405145 6.628217
C -0.269128 2.093928 6.628217
Si 0.572961 0.405145 9.574091
C -0.269128 2.093928 9.574091
Si -1.580632 3.450785 6.628217
C -2.422721 5.139568 6.628217
Si -1.580632 3.450785 9.574091
C -2.422721 5.139568 9.574091
Si -1.580632 3.450785 12.519965
C -2.422721 5.139568 12.519965
Si -3.734225 6.496425 9.574091
C -4.576314 8.185208 9.574091
Si -3.734225 6.496425 12.519965
C -4.576314 8.185208 12.519965
Si -3.734225 6.496425 15.465839
C -4.576314 8.185208 15.465839
Si 3.030387 -0.141423 5.155280
C 2.188297 1.547360 5.155280
Si 3.030387 -0.141423 8.101154
C 2.188297 1.547360 8.101154
Si 3.030387 -0.141423 11.047028
C 2.188297 1.547360 11.047028
Si 0.876794 2.904217 8.101154
C 0.034704 4.593000 8.101154
Si 0.876794 2.904217 11.047028
C 0.034704 4.593000 11.047028
Si 0.876794 2.904217 13.992902
C 0.034704 4.593000 13.992902
Si -1.276799 5.949857 11.047028
C -2.118889 7.638640 11.047028
Si -1.276799 5.949857 13.992902
C -2.118889 7.638640 13.992902
Si -1.276799 5.949857 16.938776
C -2.118889 7.638640 16.938776
Si 5.487812 -0.687991 6.628217
C 4.645723 1.000792 6.628217
Si 5.487812 -0.687991 9.574091
C 4.645723 1.000792 9.574091
Si 5.487812 -0.687991 12.519965
C 4.645723 1.000792 12.519965
Si 3.334219 2.357649 9.574091
C 2.492130 4.046432 9.574091
Si 3.334219 2.357649 12.519965
C 2.492130 4.046432 12.519965
Si 3.334219 2.357649 15.465839
C 2.492130 4.046432 15.465839
Si 1.180626 5.403289 12.519965
C 0.338537 7.092072 12.519965
Si 1.180626 5.403289 15.465839
C 0.338537 7.092072 15.465839
Si 1.180626 5.403289 18.411713
C 0.338537 7.092072 18.411713
