54
A
Si 0.580940 0.410787 3.724699
C -0.375406 2.083539 3.577597
Si 0.580940 0.410787 6.645618
C -0.375406 2.083539 6.498515
Si 0.580940 0.410787 9.566536
C -0.375406 2.083539 9.419433
Si -1.633710 3.542775 5.933628
C -2.590056 5.215527 5.786525
Si -1.633710 3.542775 8.854546
C -2.590056 5.215527 8.707444
Si -1.633710 3.542775 11.775465
C -2.590056 5.215527 11.628362
Si -3.848360 6.674763 8.142556
C -4.804706 8.347515 7.995454
Si -3.848360 6.674763 11.063475
C -4.804706 8.347515 10.916372
Si -3.848360 6.674763 13.984393
C -4.804706 8.347515 13.837290
Si 3.001124 -0.226876 5.897149
C 2.044778 1.445876 5.750046
Si 3.001124 -0.226876 8.818067
C 2.044778 1.445876 8.670964
Si 3.001124 -0.226876 11.738985
C 2.044778 1.445876 11.591883
Si 0.786474 2.905112 8.106077
C -0.169872 4.577864 7.958974
Si 0.786474 2.905112 11.026996
C -0.169872 4.577864 10.879893
Si 0.786474 2.905112 13.947914
C -0.169872 4.577864 13.800811
Si -1.428176 6.037100 10.315006
C -2.384523 7.709852 10.167903
Si -1.428176 6.037100 13.235924
C -2.384523 7.709852 13.088821
Si -1.428176 6.037100 16.156842
C -2.384523 7.709852 16.009740
Si 5.421308 -0.864539 8.069598
C 4.464962 0.808213 7.922495
Si 5.421308 -0.864539 10.990516
C 4.464962 0.808213 10.843414
Si 5.421308 -0.864539 13.911435
C 4.464962 0.808213 13.764332
Si 3.206658 2.267449 10.278526
C 2.250311 3.940201 10.131424
Si 3.206658 2.267449 13.199445
C 2.250311 3.940201 13.052342
Si 3.206658 2.267449 16.120363
C 2.250311 3.940201 15.973260
Si 0.992008 5.399437 12.487455
C 0.035661 7.072190 12.340352
Si 0.992008 5.399437 15.408373
C 0.035661 7.072190 15.261271
Si 0.992008 5.399437 18.329292
C 0.035661 7.072190 18.182189
