54
A
Si 0.556074 0.393203 3.828667
C -0.118197 2.112342 3.621095
Si 0.556074 0.393203 6.808571
C -0.118197 2.112342 6.600999
Si 0.556074 0.393203 9.788476
C -0.118197 2.112342 9.580904
Si -1.514259 3.321097 5.291723
C -2.188531 5.040235 5.084151
Si -1.514259 3.321097 8.271628
C -2.188531 5.040235 8.064056
Si -1.514259 3.321097 11.251532
C -2.188531 5.040235 11.043960
Si -3.584593 6.248990 6.754780
C -4.258864 7.968128 6.547208
Si -3.584593 6.248990 9.734684
C -4.258864 7.968128 9.527112
Si -3.584593 6.248990 12.714589
C -4.258864 7.968128 12.507017
Si 3.064283 -0.029145 6.835467
C 2.390012 1.689994 6.627895
Si 3.064283 -0.029145 9.815371
C 2.390012 1.689994 9.607799
Si 3.064283 -0.029145 12.795276
C 2.390012 1.689994 12.587704
Si 0.993950 2.898749 8.298523
C 0.319679 4.617887 8.090952
Si 0.993950 2.898749 11.278428
C 0.319679 4.617887 11.070856
Si 0.993950 2.898749 14.258332
C 0.319679 4.617887 14.050761
Si -1.076383 5.826642 9.761580
C -1.750654 7.545780 9.554008
Si -1.076383 5.826642 12.741484
C -1.750654 7.545780 12.533913
Si -1.076383 5.826642 15.721389
C -1.750654 7.545780 15.513817
Si 5.572493 -0.451493 9.842267
C 4.898222 1.267646 9.634695
Si 5.572493 -0.451493 12.822172
C 4.898222 1.267646 12.614600
Si 5.572493 -0.451493 15.802076
C 4.898222 1.267646 15.594504
Si 3.502160 2.476401 11.305324
C 2.827888 4.195539 11.097752
Si 3.502160 2.476401 14.285228
C 2.827888 4.195539 14.077656
Si 3.502160 2.476401 17.265133
C 2.827888 4.195539 17.057561
Si 1.431826 5.404294 12.768380
C 0.757555 7.123432 12.560808
Si 1.431826 5.404294 15.748285
C 0.757555 7.123432 15.540713
Si 1.431826 5.404294 18.728189
C 0.757555 7.123432 18.520617
