54
A
Si 0.545821 0.385954 3.744732
C -0.045391 2.122612 3.744732
Si 0.545821 0.385954 6.740517
C -0.045391 2.122612 6.740517
Si 0.545821 0.385954 9.736303
C -0.045391 2.122612 9.736303
Si -1.485658 3.258898 6.740517
C -2.076870 4.995557 6.740517
Si -1.485658 3.258898 9.736303
C -2.076870 4.995557 9.736303
Si -1.485658 3.258898 12.732088
C -2.076870 4.995557 12.732088
Si -3.517136 6.131843 9.736303
C -4.108348 7.868501 9.736303
Si -3.517136 6.131843 12.732088
C -4.108348 7.868501 12.732088
Si -3.517136 6.131843 15.727873
C -4.108348 7.868501 15.727873
Si 3.077730 0.021575 5.242624
C 2.486518 1.758234 5.242624
Si 3.077730 0.021575 8.238410
C 2.486518 1.758234 8.238410
Si 3.077730 0.021575 11.234195
C 2.486518 1.758234 11.234195
Si 1.046251 2.894520 8.238410
C 0.455039 4.631178 8.238410
Si 1.046251 2.894520 11.234195
C 0.455039 4.631178 11.234195
Si 1.046251 2.894520 14.229981
C 0.455039 4.631178 14.229981
Si -0.985228 5.767464 11.234195
C -1.576439 7.504123 11.234195
Si -0.985228 5.767464 14.229981
C -1.576439 7.504123 14.229981
Si -0.985228 5.767464 17.225766
C -1.576439 7.504123 17.225766
Si 5.609638 -0.342804 6.740517
C 5.018427 1.393855 6.740517
Si 5.609638 -0.342804 9.736302
C 5.018427 1.393855 9.736302
Si 5.609638 -0.342804 12.732088
C 5.018427 1.393855 12.732088
Si 3.578160 2.530141 9.736302
C 2.986948 4.266800 9.736302
Si 3.578160 2.530141 12.732088
C 2.986948 4.266800 12.732088
Si 3.578160 2.530141 15.727873
C 2.986948 4.266800 15.727873
Si 1.546681 5.403086 12.732088
C 0.955469 7.139744 12.732088
Si 1.546681 5.403086 15.727873
C 0.955469 7.139744 15.727873
Si 1.546681 5.403086 18.723659
C 0.955469 7.139744 18.723659
