54
A
Si 0.461067 0.326023 3.875058
C 0.387877 2.199372 3.835603
Si 0.461067 0.326023 6.959323
C 0.387877 2.199372 6.919868
Si 0.461067 0.326023 10.043587
C 0.387877 2.199372 10.004133
Si -1.353936 2.892826 4.018495
C -1.427126 4.766174 3.979040
Si -1.353936 2.892826 7.102760
C -1.427126 4.766174 7.063305
Si -1.353936 2.892826 10.187024
C -1.427126 4.766174 10.147570
Si -3.168940 5.459628 4.161932
C -3.242130 7.332977 4.122477
Si -3.168940 5.459628 7.246197
C -3.242130 7.332977 7.206742
Si -3.168940 5.459628 10.330461
C -3.242130 7.332977 10.291007
Si 3.125014 0.284617 8.358018
C 3.051824 2.157965 8.318563
Si 3.125014 0.284617 11.442282
C 3.051824 2.157965 11.402828
Si 3.125014 0.284617 14.526547
C 3.051824 2.157965 14.487092
Si 1.310011 2.851419 8.501455
C 1.236821 4.724768 8.462000
Si 1.310011 2.851419 11.585719
C 1.236821 4.724768 11.546265
Si 1.310011 2.851419 14.669984
C 1.236821 4.724768 14.630529
Si -0.504992 5.418221 8.644892
C -0.578182 7.291570 8.605437
Si -0.504992 5.418221 11.729156
C -0.578182 7.291570 11.689702
Si -0.504992 5.418221 14.813421
C -0.578182 7.291570 14.773966
Si 5.788961 0.243210 12.840977
C 5.715771 2.116559 12.801523
Si 5.788961 0.243210 15.925242
C 5.715771 2.116559 15.885787
Si 5.788961 0.243210 19.009507
C 5.715771 2.116559 18.970052
Si 3.973958 2.810012 12.984414
C 3.900768 4.683361 12.944960
Si 3.973958 2.810012 16.068679
C 3.900768 4.683361 16.029224
Si 3.973958 2.810012 19.152944
C 3.900768 4.683361 19.113489
Si 2.158955 5.376815 13.127851
C 2.085765 7.250163 13.088397
Si 2.158955 5.376815 16.212116
C 2.085765 7.250163 16.172661
Si 2.158955 5.376815 19.296381
C 2.085765 7.250163 19.256926
