54
A
Si 0.463825 0.327974 3.875918
C 0.376182 2.196990 3.829071
Si 0.463825 0.327974 6.957914
C 0.376182 2.196990 6.911067
Si 0.463825 0.327974 10.039910
C 0.376182 2.196990 9.993063
Si -1.356729 2.902626 4.048043
C -1.444372 4.771642 4.001196
Si -1.356729 2.902626 7.130039
C -1.444372 4.771642 7.083192
Si -1.356729 2.902626 10.212035
C -1.444372 4.771642 10.165187
Si -3.177282 5.477278 4.220167
C -3.264926 7.346294 4.173320
Si -3.177282 5.477278 7.302163
C -3.264926 7.346294 7.255316
Si -3.177282 5.477278 10.384159
C -3.264926 7.346294 10.337312
Si 3.124387 0.278286 8.326788
C 3.036744 2.147302 8.279940
Si 3.124387 0.278286 11.408784
C 3.036744 2.147302 11.361936
Si 3.124387 0.278286 14.490779
C 3.036744 2.147302 14.443932
Si 1.303833 2.852938 8.498912
C 1.216190 4.721954 8.452065
Si 1.303833 2.852938 11.580908
C 1.216190 4.721954 11.534061
Si 1.303833 2.852938 14.662904
C 1.216190 4.721954 14.616057
Si -0.516721 5.427590 8.671036
C -0.604364 7.296606 8.624189
Si -0.516721 5.427590 11.753032
C -0.604364 7.296606 11.706185
Si -0.516721 5.427590 14.835028
C -0.604364 7.296606 14.788181
Si 5.784949 0.228598 12.777657
C 5.697305 2.097614 12.730810
Si 5.784949 0.228598 15.859653
C 5.697305 2.097614 15.812806
Si 5.784949 0.228598 18.941649
C 5.697305 2.097614 18.894802
Si 3.964395 2.803250 12.949781
C 3.876752 4.672266 12.902934
Si 3.964395 2.803250 16.031777
C 3.876752 4.672266 15.984930
Si 3.964395 2.803250 19.113773
C 3.876752 4.672266 19.066926
Si 2.143841 5.377902 13.121906
C 2.056198 7.246918 13.075058
Si 2.143841 5.377902 16.203902
C 2.056198 7.246918 16.157054
Si 2.143841 5.377902 19.285897
C 2.056198 7.246918 19.239050
