54
A
Si 0.503771 0.356220 3.807121
C 0.193256 2.161839 3.807121
Si 0.503771 0.356220 6.852818
C 0.193256 2.161839 6.852818
Si 0.503771 0.356220 9.898514
C 0.193256 2.161839 9.898514
Si -1.405593 3.056469 6.852818
C -1.716108 4.862088 6.852818
Si -1.405593 3.056469 9.898515
C -1.716108 4.862088 9.898514
Si -1.405593 3.056469 12.944211
C -1.716108 4.862088 12.944211
Si -3.314957 5.756718 9.898515
C -3.625472 7.562337 9.898514
Si -3.314957 5.756718 12.944211
C -3.625472 7.562337 12.944211
Si -3.314957 5.756718 15.989908
C -3.625472 7.562337 15.989908
Si 3.110163 0.174031 5.329969
C 2.799648 1.979650 5.329969
Si 3.110163 0.174031 8.375666
C 2.799648 1.979650 8.375666
Si 3.110163 0.174031 11.421363
C 2.799648 1.979650 11.421362
Si 1.200799 2.874280 8.375666
C 0.890284 4.679899 8.375666
Si 1.200799 2.874280 11.421363
C 0.890284 4.679899 11.421363
Si 1.200799 2.874280 14.467059
C 0.890284 4.679899 14.467059
Si -0.708565 5.574529 11.421363
C -1.019081 7.380148 11.421363
Si -0.708565 5.574529 14.467060
C -1.019081 7.380148 14.467059
Si -0.708565 5.574529 17.512756
C -1.019081 7.380148 17.512756
Si 5.716555 -0.008158 6.852817
C 5.406040 1.797461 6.852817
Si 5.716555 -0.008158 9.898514
C 5.406040 1.797461 9.898514
Si 5.716555 -0.008158 12.944211
C 5.406040 1.797461 12.944211
Si 3.807191 2.692090 9.898514
C 3.496676 4.497710 9.898514
Si 3.807191 2.692090 12.944211
C 3.496676 4.497710 12.944211
Si 3.807191 2.692090 15.989908
C 3.496676 4.497710 15.989907
Si 1.897827 5.392339 12.944211
C 1.587311 7.197959 12.944211
Si 1.897827 5.392339 15.989908
C 1.587311 7.197959 15.989907
Si 1.897827 5.392339 19.035604
C 1.587311 7.197959 19.035604
