54
A
Si 0.585957 0.414334 3.600102
C -0.541275 2.072224 3.600102
Si 0.585957 0.414334 6.480184
C -0.541275 2.072224 6.480184
Si 0.585957 0.414334 9.360266
C -0.541275 2.072224 9.360266
Si -1.728605 3.687618 6.480184
C -2.855837 5.345508 6.480184
Si -1.728605 3.687618 9.360266
C -2.855837 5.345508 9.360266
Si -1.728605 3.687618 12.240348
C -2.855837 5.345508 12.240348
Si -4.043167 6.960903 9.360266
C -5.170399 8.618793 9.360266
Si -4.043167 6.960903 12.240348
C -5.170399 8.618793 12.240348
Si -4.043167 6.960903 15.120429
C -5.170399 8.618793 15.120429
Si 2.945200 -0.372393 5.040144
C 1.817968 1.285497 5.040144
Si 2.945200 -0.372393 7.920225
C 1.817968 1.285497 7.920225
Si 2.945200 -0.372393 10.800307
C 1.817968 1.285497 10.800307
Si 0.630638 2.900892 7.920225
C -0.496594 4.558782 7.920225
Si 0.630638 2.900892 10.800307
C -0.496594 4.558782 10.800307
Si 0.630638 2.900892 13.680389
C -0.496594 4.558782 13.680389
Si -1.683924 6.174176 10.800307
C -2.811156 7.832066 10.800307
Si -1.683924 6.174176 13.680389
C -2.811156 7.832066 13.680389
Si -1.683924 6.174176 16.560471
C -2.811156 7.832066 16.560471
Si 5.304443 -1.159120 6.480185
C 4.177211 0.498771 6.480185
Si 5.304443 -1.159120 9.360267
C 4.177211 0.498771 9.360267
Si 5.304443 -1.159120 12.240349
C 4.177211 0.498771 12.240349
Si 2.989881 2.114165 9.360267
C 1.862649 3.772055 9.360267
Si 2.989881 2.114165 12.240348
C 1.862649 3.772055 12.240348
Si 2.989881 2.114165 15.120430
C 1.862649 3.772055 15.120430
Si 0.675319 5.387449 12.240348
C -0.451913 7.045340 12.240348
Si 0.675319 5.387449 15.120430
C -0.451913 7.045340 15.120430
Si 0.675319 5.387449 18.000512
C -0.451913 7.045340 18.000512
