54
A
Si 0.455458 0.322057 3.861003
C 0.411359 2.204202 3.861002
Si 0.455458 0.322057 6.949805
C 0.411359 2.204202 6.949804
Si 0.455458 0.322057 10.038607
C 0.411359 2.204202 10.038606
Si -1.348444 2.873160 6.949805
C -1.392543 4.755304 6.949804
Si -1.348444 2.873160 10.038607
C -1.392543 4.755304 10.038606
Si -1.348444 2.873160 13.127409
C -1.392543 4.755304 13.127409
Si -3.152346 5.424263 10.038607
C -3.196445 7.306407 10.038607
Si -3.152346 5.424263 13.127409
C -3.196445 7.306407 13.127409
Si -3.152346 5.424263 16.216211
C -3.196445 7.306407 16.216211
Si 3.126176 0.297213 5.405403
C 3.082077 2.179358 5.405403
Si 3.126176 0.297213 8.494205
C 3.082077 2.179358 8.494205
Si 3.126176 0.297213 11.583007
C 3.082077 2.179358 11.583007
Si 1.322274 2.848316 8.494205
C 1.278175 4.730460 8.494205
Si 1.322274 2.848316 11.583007
C 1.278175 4.730460 11.583007
Si 1.322274 2.848316 14.671809
C 1.278175 4.730460 14.671809
Si -0.481628 5.399419 11.583007
C -0.525727 7.281563 11.583007
Si -0.481628 5.399419 14.671809
C -0.525727 7.281563 14.671809
Si -0.481628 5.399419 17.760611
C -0.525727 7.281563 17.760611
Si 5.796894 0.272369 6.949804
C 5.752796 2.154514 6.949803
Si 5.796894 0.272369 10.038606
C 5.752796 2.154514 10.038605
Si 5.796894 0.272369 13.127408
C 5.752796 2.154514 13.127408
Si 3.992992 2.823472 10.038606
C 3.948894 4.705616 10.038606
Si 3.992992 2.823472 13.127408
C 3.948894 4.705616 13.127408
Si 3.992992 2.823472 16.216210
C 3.948894 4.705616 16.216210
Si 2.189090 5.374575 13.127408
C 2.144992 7.256719 13.127408
Si 2.189090 5.374575 16.216210
C 2.144992 7.256719 16.216210
Si 2.189090 5.374575 19.305012
C 2.144992 7.256719 19.305012
