54
A
Si 0.585940 0.414322 3.602938
C -0.532322 2.072667 3.602938
Si 0.585940 0.414322 6.485289
C -0.532322 2.072667 6.485289
Si 0.585940 0.414322 9.367639
C -0.532322 2.072667 9.367639
Si -1.723071 3.679757 6.485289
C -2.841333 5.338102 6.485289
Si -1.723071 3.679757 9.367639
C -2.841333 5.338102 9.367639
Si -1.723071 3.679757 12.249990
C -2.841333 5.338102 12.249990
Si -4.032083 6.945191 9.367639
C -5.150344 8.603537 9.367639
Si -4.032083 6.945191 12.249990
C -5.150344 8.603537 12.249990
Si -4.032083 6.945191 15.132340
C -5.150344 8.603537 15.132340
Si 2.948568 -0.364123 5.044114
C 1.830306 1.294222 5.044114
Si 2.948568 -0.364123 7.926464
C 1.830306 1.294222 7.926464
Si 2.948568 -0.364123 10.808815
C 1.830306 1.294222 10.808815
Si 0.639557 2.901311 7.926464
C -0.478705 4.559657 7.926464
Si 0.639557 2.901311 10.808815
C -0.478705 4.559657 10.808815
Si 0.639557 2.901311 13.691165
C -0.478705 4.559657 13.691165
Si -1.669454 6.166746 10.808815
C -2.787716 7.825091 10.808815
Si -1.669454 6.166746 13.691165
C -2.787716 7.825091 13.691165
Si -1.669454 6.166746 16.573516
C -2.787716 7.825091 16.573516
Si 5.311197 -1.142569 6.485289
C 4.192935 0.515777 6.485289
Si 5.311197 -1.142569 9.367640
C 4.192935 0.515777 9.367640
Si 5.311197 -1.142569 12.249991
C 4.192935 0.515777 12.249990
Si 3.002186 2.122866 9.367640
C 1.883924 3.781211 9.367640
Si 3.002186 2.122866 12.249990
C 1.883924 3.781211 12.249990
Si 3.002186 2.122866 15.132341
C 1.883924 3.781211 15.132341
Si 0.693175 5.388301 12.249990
C -0.425087 7.046646 12.249990
Si 0.693175 5.388301 15.132341
C -0.425087 7.046646 15.132341
Si 0.693175 5.388301 18.014691
C -0.425087 7.046646 18.014691
