54
A
Si 0.583335 0.412480 3.698268
C -0.422482 2.079688 3.575669
Si 0.583335 0.412480 6.607843
C -0.422482 2.079688 6.485244
Si 0.583335 0.412480 9.517418
C -0.422482 2.079688 9.394819
Si -1.659069 3.583717 6.050634
C -2.664885 5.250925 5.928034
Si -1.659069 3.583717 8.960209
C -2.664885 5.250925 8.837609
Si -1.659069 3.583717 11.869784
C -2.664885 5.250925 11.747184
Si -3.901472 6.754954 8.402999
C -4.907289 8.422162 8.280400
Si -3.901472 6.754954 11.312574
C -4.907289 8.422162 11.189975
Si -3.901472 6.754954 14.222149
C -4.907289 8.422162 14.099549
Si 2.986591 -0.266589 5.710266
C 1.980774 1.400619 5.587666
Si 2.986591 -0.266589 8.619840
C 1.980774 1.400619 8.497241
Si 2.986591 -0.266589 11.529415
C 1.980774 1.400619 11.406816
Si 0.744187 2.904648 8.062631
C -0.261630 4.571856 7.940031
Si 0.744187 2.904648 10.972206
C -0.261630 4.571856 10.849606
Si 0.744187 2.904648 13.881781
C -0.261630 4.571856 13.759181
Si -1.498216 6.075885 10.414996
C -2.504033 7.743093 10.292397
Si -1.498216 6.075885 13.324571
C -2.504033 7.743093 13.201972
Si -1.498216 6.075885 16.234146
C -2.504033 7.743093 16.111547
Si 5.389846 -0.945659 7.722263
C 4.384030 0.721549 7.599663
Si 5.389846 -0.945659 10.631838
C 4.384030 0.721549 10.509238
Si 5.389846 -0.945659 13.541413
C 4.384030 0.721549 13.418813
Si 3.147443 2.225578 10.074628
C 2.141626 3.892786 9.952029
Si 3.147443 2.225578 12.984203
C 2.141626 3.892786 12.861604
Si 3.147443 2.225578 15.893778
C 2.141626 3.892786 15.771178
Si 0.905040 5.396815 12.426993
C -0.100777 7.064023 12.304394
Si 0.905040 5.396815 15.336568
C -0.100777 7.064023 15.213969
Si 0.905040 5.396815 18.246143
C -0.100777 7.064023 18.123544
