54
A
Si 0.446813 0.315944 3.869510
C 0.446813 2.211609 3.869510
Si 0.446813 0.315944 6.965118
C 0.446813 2.211609 6.965118
Si 0.446813 0.315944 10.060726
C 0.446813 2.211609 10.060726
Si -1.340437 2.843497 3.869510
C -1.340437 4.739163 3.869510
Si -1.340437 2.843497 6.965118
C -1.340437 4.739163 6.965118
Si -1.340437 2.843497 10.060727
C -1.340437 4.739163 10.060726
Si -3.127688 5.371051 3.869510
C -3.127687 7.266716 3.869510
Si -3.127688 5.371051 6.965118
C -3.127687 7.266716 6.965118
Si -3.127688 5.371051 10.060727
C -3.127687 7.266716 10.060726
Si 3.127688 0.315944 8.512922
C 3.127688 2.211609 8.512922
Si 3.127688 0.315944 11.608530
C 3.127688 2.211609 11.608530
Si 3.127688 0.315944 14.704138
C 3.127688 2.211609 14.704138
Si 1.340438 2.843497 8.512922
C 1.340438 4.739163 8.512922
Si 1.340438 2.843497 11.608530
C 1.340438 4.739163 11.608530
Si 1.340438 2.843497 14.704138
C 1.340438 4.739163 14.704138
Si -0.446812 5.371051 8.512922
C -0.446812 7.266716 8.512922
Si -0.446812 5.371051 11.608530
C -0.446812 7.266716 11.608530
Si -0.446812 5.371051 14.704138
C -0.446812 7.266716 14.704138
Si 5.808563 0.315944 13.156334
C 5.808563 2.211609 13.156333
Si 5.808563 0.315944 16.251942
C 5.808563 2.211609 16.251941
Si 5.808563 0.315944 19.347550
C 5.808563 2.211609 19.347550
Si 4.021313 2.843497 13.156334
C 4.021313 4.739163 13.156333
Si 4.021313 2.843497 16.251942
C 4.021313 4.739163 16.251942
Si 4.021313 2.843497 19.347550
C 4.021313 4.739163 19.347550
Si 2.234063 5.371051 13.156334
C 2.234063 7.266716 13.156334
Si 2.234063 5.371051 16.251942
C 2.234063 7.266716 16.251942
Si 2.234063 5.371051 19.347550
C 2.234063 7.266716 19.347550
