54
A
Si 0.528556 0.373745 3.866286
C 0.061237 2.139136 3.679895
Si 0.528556 0.373745 6.884758
C 0.061237 2.139136 6.698367
Si 0.528556 0.373745 9.903231
C 0.061237 2.139136 9.716840
Si -1.447416 3.168192 4.841657
C -1.914735 4.933582 4.655266
Si -1.447416 3.168192 7.860129
C -1.914735 4.933582 7.673738
Si -1.447416 3.168192 10.878602
C -1.914735 4.933582 10.692211
Si -3.423388 5.962639 5.817028
C -3.890707 7.728029 5.630637
Si -3.423388 5.962639 8.835501
C -3.890707 7.728029 8.649109
Si -3.423388 5.962639 11.853973
C -3.890707 7.728029 11.667582
Si 3.094321 0.092180 7.418623
C 2.627002 1.857571 7.232232
Si 3.094321 0.092180 10.437096
C 2.627002 1.857571 10.250705
Si 3.094321 0.092180 13.455568
C 2.627002 1.857571 13.269177
Si 1.118348 2.886627 8.393994
C 0.651029 4.652017 8.207603
Si 1.118348 2.886627 11.412467
C 0.651029 4.652017 11.226076
Si 1.118348 2.886627 14.430939
C 0.651029 4.652017 14.244548
Si -0.857624 5.681073 9.369366
C -1.324943 7.446464 9.182974
Si -0.857624 5.681073 12.387838
C -1.324943 7.446464 12.201447
Si -0.857624 5.681073 15.406310
C -1.324943 7.446464 15.219919
Si 5.660085 -0.189385 10.970961
C 5.192766 1.576005 10.784570
Si 5.660085 -0.189385 13.989433
C 5.192766 1.576005 13.803042
Si 5.660085 -0.189385 17.007906
C 5.192766 1.576005 16.821514
Si 3.684113 2.605061 11.946332
C 3.216794 4.370452 11.759941
Si 3.684113 2.605061 14.964804
C 3.216794 4.370452 14.778413
Si 3.684113 2.605061 17.983277
C 3.216794 4.370452 17.796886
Si 1.708141 5.399508 12.921703
C 1.240822 7.164898 12.735312
Si 1.708141 5.399508 15.940175
C 1.240822 7.164898 15.753784
Si 1.708141 5.399508 18.958648
C 1.240822 7.164898 18.772257
