54
A
Si 0.466553 0.329903 3.876696
C 0.364518 2.194630 3.822622
Si 0.466553 0.329903 6.956423
C 0.364518 2.194630 6.902349
Si 0.466553 0.329903 10.036150
C 0.364518 2.194630 9.982077
Si -1.359551 2.912405 4.077507
C -1.461586 4.777132 4.023434
Si -1.359551 2.912405 7.157235
C -1.461586 4.777132 7.103161
Si -1.359551 2.912405 10.236962
C -1.461586 4.777132 10.182888
Si -3.185656 5.494907 4.278319
C -3.287691 7.359634 4.224246
Si -3.185656 5.494907 7.358046
C -3.287691 7.359634 7.303973
Si -3.185656 5.494907 10.437774
C -3.287691 7.359634 10.383700
Si 3.123729 0.271933 8.295474
C 3.021694 2.136660 8.241401
Si 3.123729 0.271933 11.375202
C 3.021694 2.136660 11.321128
Si 3.123729 0.271933 14.454929
C 3.021694 2.136660 14.400855
Si 1.297624 2.854435 8.496286
C 1.195590 4.719162 8.442213
Si 1.297624 2.854435 11.576013
C 1.195590 4.719162 11.521940
Si 1.297624 2.854435 14.655741
C 1.195590 4.719162 14.601667
Si -0.528480 5.436937 8.697098
C -0.630515 7.301664 8.643024
Si -0.528480 5.436937 11.776825
C -0.630515 7.301664 11.722752
Si -0.528480 5.436937 14.856553
C -0.630515 7.301664 14.802479
Si 5.780905 0.213964 12.714253
C 5.678870 2.078691 12.660180
Si 5.780905 0.213964 15.793981
C 5.678870 2.078691 15.739907
Si 5.780905 0.213964 18.873708
C 5.678870 2.078691 18.819634
Si 3.954800 2.796466 12.915065
C 3.852766 4.661193 12.860991
Si 3.954800 2.796466 15.994792
C 3.852766 4.661193 15.940719
Si 3.954800 2.796466 19.074520
C 3.852766 4.661193 19.020446
Si 2.128696 5.378968 13.115877
C 2.026661 7.243695 13.061803
Si 2.128696 5.378968 16.195604
C 2.026661 7.243695 16.141531
Si 2.128696 5.378968 19.275331
C 2.026661 7.243695 19.221258
