54
A
Si 0.573840 0.405766 3.679507
C -0.278944 2.092874 3.679507
Si 0.573840 0.405766 6.623112
C -0.278944 2.092874 6.623112
Si 0.573840 0.405766 9.566717
C -0.278944 2.092874 9.566717
Si -1.585303 3.459256 6.623112
C -2.438088 5.146364 6.623112
Si -1.585303 3.459256 9.566717
C -2.438088 5.146364 9.566717
Si -1.585303 3.459256 12.510323
C -2.438088 5.146364 12.510323
Si -3.744447 6.512747 9.566717
C -4.597231 8.199854 9.566717
Si -3.744447 6.512747 12.510323
C -4.597231 8.199854 12.510323
Si -3.744447 6.512747 15.453928
C -4.597231 8.199854 15.453928
Si 3.027880 -0.149083 5.151310
C 2.175096 1.538025 5.151310
Si 3.027880 -0.149083 8.094915
C 2.175096 1.538025 8.094915
Si 3.027880 -0.149083 11.038520
C 2.175096 1.538025 11.038520
Si 0.868737 2.904407 8.094915
C 0.015952 4.591515 8.094915
Si 0.868737 2.904407 11.038520
C 0.015952 4.591515 11.038520
Si 0.868737 2.904407 13.982126
C 0.015952 4.591515 13.982126
Si -1.290407 5.957897 11.038520
C -2.143191 7.645005 11.038520
Si -1.290407 5.957897 13.982126
C -2.143191 7.645005 13.982126
Si -1.290407 5.957897 16.925731
C -2.143191 7.645005 16.925731
Si 5.481920 -0.703932 6.623112
C 4.629136 0.983176 6.623112
Si 5.481920 -0.703932 9.566718
C 4.629136 0.983176 9.566718
Si 5.481920 -0.703932 12.510323
C 4.629136 0.983176 12.510323
Si 3.322777 2.349558 9.566718
C 2.469992 4.036666 9.566718
Si 3.322777 2.349558 12.510323
C 2.469992 4.036666 12.510323
Si 3.322777 2.349558 15.453928
C 2.469992 4.036666 15.453928
Si 1.163633 5.403048 12.510323
C 0.310849 7.090156 12.510323
Si 1.163633 5.403048 15.453928
C 0.310849 7.090156 15.453928
Si 1.163633 5.403048 18.397534
C 0.310849 7.090156 18.397534
