54
A
Si 0.524733 0.371042 3.869134
C 0.082932 2.142702 3.688391
Si 0.524733 0.371042 6.892143
C 0.082932 2.142702 6.711401
Si 0.524733 0.371042 9.915153
C 0.082932 2.142702 9.734410
Si -1.440138 3.149789 4.787130
C -1.881939 4.921449 4.606387
Si -1.440138 3.149789 7.810140
C -1.881939 4.921449 7.629397
Si -1.440138 3.149789 10.833150
C -1.881939 4.921449 10.652407
Si -3.405008 5.928536 5.705126
C -3.846810 7.700196 5.524383
Si -3.405008 5.928536 8.728136
C -3.846810 7.700196 8.547393
Si -3.405008 5.928536 11.751146
C -3.846810 7.700196 11.570403
Si 3.097269 0.106040 7.485652
C 2.655468 1.877699 7.304909
Si 3.097269 0.106040 10.508662
C 2.655468 1.877699 10.327919
Si 3.097269 0.106040 13.531671
C 2.655468 1.877699 13.350929
Si 1.132398 2.884787 8.403648
C 0.690597 4.656446 8.222905
Si 1.132398 2.884787 11.426658
C 0.690597 4.656446 11.245915
Si 1.132398 2.884787 14.449668
C 0.690597 4.656446 14.268925
Si -0.832473 5.663534 9.321644
C -1.274274 7.435193 9.140902
Si -0.832473 5.663534 12.344654
C -1.274274 7.435193 12.163911
Si -0.832473 5.663534 15.367664
C -1.274274 7.435193 15.186921
Si 5.669805 -0.158963 11.102170
C 5.228004 1.612697 10.921427
Si 5.669805 -0.158963 14.125180
C 5.228004 1.612697 13.944437
Si 5.669805 -0.158963 17.148190
C 5.228004 1.612697 16.967447
Si 3.704934 2.619784 12.020166
C 3.263133 4.391444 11.839424
Si 3.704934 2.619784 15.043176
C 3.263133 4.391444 14.862433
Si 3.704934 2.619784 18.066186
C 3.263133 4.391444 17.885443
Si 1.740063 5.398531 12.938163
C 1.298262 7.170191 12.757420
Si 1.740063 5.398531 15.961173
C 1.298262 7.170191 15.780430
Si 1.740063 5.398531 18.984182
C 1.298262 7.170191 18.803439
