54
A
Si 0.585393 0.413936 3.617118
C -0.487095 2.075211 3.617118
Si 0.585393 0.413936 6.510812
C -0.487095 2.075211 6.510812
Si 0.585393 0.413936 9.404506
C -0.487095 2.075211 9.404506
Si -1.695865 3.640121 6.510812
C -2.768352 5.301397 6.510812
Si -1.695865 3.640121 9.404506
C -2.768352 5.301397 9.404506
Si -1.695865 3.640121 12.298200
C -2.768352 5.301397 12.298200
Si -3.977122 6.866307 9.404505
C -5.049610 8.527583 9.404505
Si -3.977122 6.866307 12.298199
C -5.049610 8.527583 12.298199
Si -3.977122 6.866307 15.191893
C -5.049610 8.527583 15.191893
Si 2.964950 -0.323103 5.063965
C 1.892462 1.338173 5.063965
Si 2.964950 -0.323103 7.957659
C 1.892462 1.338173 7.957659
Si 2.964950 -0.323103 10.851353
C 1.892462 1.338173 10.851353
Si 0.683692 2.903083 7.957659
C -0.388796 4.564358 7.957659
Si 0.683692 2.903083 10.851353
C -0.388796 4.564358 10.851353
Si 0.683692 2.903083 13.745047
C -0.388796 4.564358 13.745047
Si -1.597566 6.129268 10.851353
C -2.670054 7.790544 10.851353
Si -1.597566 6.129268 13.745047
C -2.670054 7.790544 13.745047
Si -1.597566 6.129268 16.638741
C -2.670054 7.790544 16.638741
Si 5.344507 -1.060142 6.510812
C 4.272019 0.601134 6.510812
Si 5.344507 -1.060142 9.404506
C 4.272019 0.601134 9.404506
Si 5.344507 -1.060142 12.298200
C 4.272019 0.601134 12.298200
Si 3.063249 2.166044 9.404506
C 1.990761 3.827320 9.404506
Si 3.063249 2.166044 12.298200
C 1.990761 3.827320 12.298200
Si 3.063249 2.166044 15.191894
C 1.990761 3.827320 15.191894
Si 0.781991 5.392230 12.298200
C -0.290497 7.053505 12.298200
Si 0.781991 5.392230 15.191894
C -0.290497 7.053505 15.191894
Si 0.781991 5.392230 18.085588
C -0.290497 7.053505 18.085588
