54
A
Si 0.585957 0.414334 3.619830
C -0.541275 2.072224 3.580375
Si 0.585957 0.414334 6.499911
C -0.541275 2.072224 6.460457
Si 0.585957 0.414334 9.379993
C -0.541275 2.072224 9.340539
Si -1.728605 3.687618 6.345131
C -2.855837 5.345508 6.305676
Si -1.728605 3.687618 9.225213
C -2.855837 5.345508 9.185758
Si -1.728605 3.687618 12.105295
C -2.855837 5.345508 12.065840
Si -4.043167 6.960903 9.070432
C -5.170399 8.618793 9.030978
Si -4.043167 6.960903 11.950514
C -5.170399 8.618793 11.911060
Si -4.043167 6.960903 14.830596
C -5.170399 8.618793 14.791141
Si 2.945200 -0.372393 5.214651
C 1.817968 1.285497 5.175197
Si 2.945200 -0.372393 8.094733
C 1.817968 1.285497 8.055279
Si 2.945200 -0.372393 10.974815
C 1.817968 1.285497 10.935360
Si 0.630638 2.900892 7.939953
C -0.496594 4.558782 7.900498
Si 0.630638 2.900892 10.820034
C -0.496594 4.558782 10.780580
Si 0.630638 2.900892 13.700116
C -0.496594 4.558782 13.660662
Si -1.683924 6.174176 10.665254
C -2.811156 7.832066 10.625799
Si -1.683924 6.174176 13.545336
C -2.811156 7.832066 13.505881
Si -1.683924 6.174176 16.425418
C -2.811156 7.832066 16.385963
Si 5.304443 -1.159120 6.809473
C 4.177211 0.498771 6.770019
Si 5.304443 -1.159120 9.689555
C 4.177211 0.498771 9.650100
Si 5.304443 -1.159120 12.569637
C 4.177211 0.498771 12.530182
Si 2.989881 2.114165 9.534774
C 1.862649 3.772055 9.495320
Si 2.989881 2.114165 12.414856
C 1.862649 3.772055 12.375402
Si 2.989881 2.114165 15.294938
C 1.862649 3.772055 15.255483
Si 0.675319 5.387449 12.260076
C -0.451913 7.045340 12.220621
Si 0.675319 5.387449 15.140157
C -0.451913 7.045340 15.100703
Si 0.675319 5.387449 18.020239
C -0.451913 7.045340 17.980785
