54
A
Si 0.584402 0.413234 3.681413
C -0.450358 2.077639 3.575509
Si 0.584402 0.413234 6.584182
C -0.450358 2.077639 6.478278
Si 0.584402 0.413234 9.486951
C -0.450358 2.077639 9.381047
Si -1.674654 3.608021 6.119841
C -2.709413 5.272425 6.013937
Si -1.674654 3.608021 9.022609
C -2.709413 5.272425 8.916705
Si -1.674654 3.608021 11.925378
C -2.709413 5.272425 11.819474
Si -3.933709 6.802807 8.558268
C -4.968469 8.467212 8.452364
Si -3.933709 6.802807 11.461037
C -4.968469 8.467212 11.355133
Si -3.933709 6.802807 14.363806
C -4.968469 8.467212 14.257902
Si 2.977501 -0.290679 5.597139
C 1.942741 1.373725 5.491235
Si 2.977501 -0.290679 8.499908
C 1.942741 1.373725 8.394004
Si 2.977501 -0.290679 11.402677
C 1.942741 1.373725 11.296773
Si 0.718446 2.904108 8.035566
C -0.316314 4.568512 7.929662
Si 0.718446 2.904108 10.938335
C -0.316314 4.568512 10.832431
Si 0.718446 2.904108 13.841104
C -0.316314 4.568512 13.735200
Si -1.540610 6.098894 10.473994
C -2.575370 7.763298 10.368090
Si -1.540610 6.098894 13.376763
C -2.575370 7.763298 13.270859
Si -1.540610 6.098894 16.279532
C -2.575370 7.763298 16.173628
Si 5.370600 -0.994592 7.512865
C 4.335840 0.669812 7.406961
Si 5.370600 -0.994592 10.415634
C 4.335840 0.669812 10.309730
Si 5.370600 -0.994592 13.318402
C 4.335840 0.669812 13.212498
Si 3.111545 2.200194 9.951292
C 2.076785 3.864598 9.845388
Si 3.111545 2.200194 12.854061
C 2.076785 3.864598 12.748157
Si 3.111545 2.200194 15.756830
C 2.076785 3.864598 15.650926
Si 0.852489 5.394981 12.389720
C -0.182270 7.059385 12.283816
Si 0.852489 5.394981 15.292489
C -0.182270 7.059385 15.186585
Si 0.852489 5.394981 18.195257
C -0.182270 7.059385 18.089353
