54
A
Si 0.477156 0.337400 3.838316
C 0.318171 2.185407 3.838315
Si 0.477156 0.337400 6.908968
C 0.318171 2.185407 6.908968
Si 0.477156 0.337400 9.979620
C 0.318171 2.185407 9.979620
Si -1.371151 2.951301 6.908968
C -1.530136 4.799308 6.908968
Si -1.371151 2.951301 9.979621
C -1.530136 4.799308 9.979620
Si -1.371151 2.951301 13.050273
C -1.530136 4.799308 13.050273
Si -3.219459 5.565202 9.979621
C -3.378444 7.413209 9.979620
Si -3.219459 5.565202 13.050273
C -3.378444 7.413209 13.050273
Si -3.219459 5.565202 16.120926
C -3.378444 7.413209 16.120925
Si 3.120789 0.246305 5.373641
C 2.961804 2.094312 5.373641
Si 3.120789 0.246305 8.444294
C 2.961804 2.094312 8.444294
Si 3.120789 0.246305 11.514946
C 2.961804 2.094312 11.514946
Si 1.272482 2.860206 8.444294
C 1.113497 4.708213 8.444294
Si 1.272482 2.860206 11.514946
C 1.113497 4.708213 11.514946
Si 1.272482 2.860206 14.585599
C 1.113497 4.708213 14.585599
Si -0.575825 5.474108 11.514946
C -0.734810 7.322114 11.514946
Si -0.575825 5.474108 14.585599
C -0.734810 7.322114 14.585599
Si -0.575825 5.474108 17.656251
C -0.734810 7.322114 17.656251
Si 5.764423 0.155211 6.908967
C 5.605438 2.003217 6.908967
Si 5.764423 0.155211 9.979620
C 5.605438 2.003217 9.979620
Si 5.764423 0.155211 13.050272
C 5.605438 2.003217 13.050272
Si 3.916116 2.769112 9.979620
C 3.757131 4.617118 9.979620
Si 3.916116 2.769112 13.050272
C 3.757131 4.617118 13.050272
Si 3.916116 2.769112 16.120925
C 3.757131 4.617118 16.120925
Si 2.067809 5.383013 13.050272
C 1.908824 7.231019 13.050272
Si 2.067809 5.383013 16.120925
C 1.908824 7.231019 16.120925
Si 2.067809 5.383013 19.191577
C 1.908824 7.231019 19.191577
