54
A
Si 0.532255 0.376361 3.767419
C 0.039665 2.135657 3.767419
Si 0.532255 0.376361 6.781354
C 0.039665 2.135657 6.781354
Si 0.532255 0.376361 9.795289
C 0.039665 2.135657 9.795289
Si -1.454818 3.186507 6.781354
C -1.947409 4.945803 6.781354
Si -1.454818 3.186507 9.795289
C -1.947409 4.945803 9.795289
Si -1.454818 3.186507 12.809224
C -1.947409 4.945803 12.809224
Si -3.441892 5.996654 9.795289
C -3.934482 7.755949 9.795289
Si -3.441892 5.996654 12.809224
C -3.934482 7.755949 12.809224
Si -3.441892 5.996654 15.823159
C -3.934482 7.755949 15.823159
Si 3.091249 0.078233 5.274386
C 2.598658 1.837529 5.274386
Si 3.091249 0.078233 8.288321
C 2.598658 1.837529 8.288321
Si 3.091249 0.078233 11.302256
C 2.598658 1.837529 11.302256
Si 1.104175 2.888379 8.288321
C 0.611585 4.647675 8.288321
Si 1.104175 2.888379 11.302256
C 0.611585 4.647675 11.302256
Si 1.104175 2.888379 14.316191
C 0.611585 4.647675 14.316191
Si -0.882898 5.698526 11.302256
C -1.375489 7.457821 11.302256
Si -0.882898 5.698526 14.316191
C -1.375489 7.457821 14.316191
Si -0.882898 5.698526 17.330126
C -1.375489 7.457821 17.330126
Si 5.650242 -0.219895 6.781353
C 5.157652 1.539401 6.781353
Si 5.650242 -0.219895 9.795288
C 5.157652 1.539401 9.795288
Si 5.650242 -0.219895 12.809223
C 5.157652 1.539401 12.809223
Si 3.663169 2.590251 9.795288
C 3.170578 4.349547 9.795288
Si 3.663169 2.590251 12.809223
C 3.170578 4.349547 12.809223
Si 3.663169 2.590251 15.823158
C 3.170578 4.349547 15.823158
Si 1.676096 5.400398 12.809224
C 1.183505 7.159693 12.809223
Si 1.676096 5.400398 15.823159
C 1.183505 7.159693 15.823158
Si 1.676096 5.400398 18.837094
C 1.183505 7.159693 18.837093
