54
A
Si 0.584402 0.413234 3.628461
C -0.450358 2.077639 3.628461
Si 0.584402 0.413234 6.531230
C -0.450358 2.077639 6.531230
Si 0.584402 0.413234 9.433999
C -0.450358 2.077639 9.433999
Si -1.674654 3.608021 6.531230
C -2.709413 5.272425 6.531230
Si -1.674654 3.608021 9.433999
C -2.709413 5.272425 9.433999
Si -1.674654 3.608021 12.336767
C -2.709413 5.272425 12.336767
Si -3.933709 6.802807 9.433999
C -4.968469 8.467212 9.433999
Si -3.933709 6.802807 12.336767
C -4.968469 8.467212 12.336767
Si -3.933709 6.802807 15.239536
C -4.968469 8.467212 15.239536
Si 2.977501 -0.290679 5.079846
C 1.942741 1.373725 5.079846
Si 2.977501 -0.290679 7.982615
C 1.942741 1.373725 7.982615
Si 2.977501 -0.290679 10.885383
C 1.942741 1.373725 10.885383
Si 0.718446 2.904108 7.982615
C -0.316314 4.568512 7.982614
Si 0.718446 2.904108 10.885383
C -0.316314 4.568512 10.885383
Si 0.718446 2.904108 13.788152
C -0.316314 4.568512 13.788152
Si -1.540610 6.098894 10.885383
C -2.575370 7.763298 10.885383
Si -1.540610 6.098894 13.788152
C -2.575370 7.763298 13.788152
Si -1.540610 6.098894 16.690921
C -2.575370 7.763298 16.690921
Si 5.370600 -0.994592 6.531230
C 4.335840 0.669812 6.531230
Si 5.370600 -0.994592 9.433999
C 4.335840 0.669812 9.433999
Si 5.370600 -0.994592 12.336768
C 4.335840 0.669812 12.336768
Si 3.111545 2.200194 9.433999
C 2.076785 3.864598 9.433999
Si 3.111545 2.200194 12.336768
C 2.076785 3.864598 12.336768
Si 3.111545 2.200194 15.239537
C 2.076785 3.864598 15.239537
Si 0.852489 5.394981 12.336768
C -0.182270 7.059385 12.336768
Si 0.852489 5.394981 15.239537
C -0.182270 7.059385 15.239537
Si 0.852489 5.394981 18.142305
C -0.182270 7.059385 18.142305
