54
A
Si 0.522776 0.369658 3.870433
C 0.093826 2.144518 3.692763
Si 0.522776 0.369658 6.895711
C 0.093826 2.144518 6.718042
Si 0.522776 0.369658 9.920990
C 0.093826 2.144518 9.743320
Si -1.436545 3.140555 4.759742
C -1.865494 4.915415 4.582072
Si -1.436545 3.140555 7.785020
C -1.865494 4.915415 7.607351
Si -1.436545 3.140555 10.810299
C -1.865494 4.915415 10.632629
Si -3.395865 5.911452 5.649051
C -3.824815 7.686312 5.471381
Si -3.395865 5.911452 8.674329
C -3.824815 7.686312 8.496660
Si -3.395865 5.911452 11.699608
C -3.824815 7.686312 11.521938
Si 3.098697 0.112937 7.519042
C 2.669747 1.887796 7.341372
Si 3.098697 0.112937 10.544320
C 2.669747 1.887796 10.366650
Si 3.098697 0.112937 13.569598
C 2.669747 1.887796 13.391929
Si 1.139377 2.883834 8.408350
C 0.710427 4.658694 8.230681
Si 1.139377 2.883834 11.433629
C 0.710427 4.658694 11.255959
Si 1.139377 2.883834 14.458907
C 0.710427 4.658694 14.281238
Si -0.819943 5.654731 9.297659
C -1.248893 7.429591 9.119990
Si -0.819943 5.654731 12.322938
C -1.248893 7.429591 12.145268
Si -0.819943 5.654731 15.348216
C -1.248893 7.429591 15.170547
Si 5.674619 -0.143785 11.167650
C 5.245669 1.631075 10.989981
Si 5.674619 -0.143785 14.192929
C 5.245669 1.631075 14.015259
Si 5.674619 -0.143785 17.218207
C 5.245669 1.631075 17.040538
Si 3.715299 2.627113 12.056959
C 3.286349 4.401972 11.879289
Si 3.715299 2.627113 15.082238
C 3.286349 4.401972 14.904568
Si 3.715299 2.627113 18.107516
C 3.286349 4.401972 17.929846
Si 1.755978 5.398010 12.946268
C 1.327029 7.172869 12.768598
Si 1.755978 5.398010 15.971547
C 1.327029 7.172869 15.793877
Si 1.755978 5.398010 18.996825
C 1.327029 7.172869 18.819155
