54
A
Si 0.565943 0.400182 3.702194
C -0.199556 2.101911 3.702194
Si 0.565943 0.400182 6.663949
C -0.199556 2.101911 6.663949
Si 0.565943 0.400182 9.625704
C -0.199556 2.101911 9.625704
Si -1.548796 3.390874 6.663949
C -2.314295 5.092603 6.663949
Si -1.548796 3.390874 9.625704
C -2.314295 5.092603 9.625704
Si -1.548796 3.390874 12.587459
C -2.314295 5.092603 12.587459
Si -3.663534 6.381565 9.625704
C -4.429033 8.083294 9.625704
Si -3.663534 6.381565 12.587459
C -4.429033 8.083294 12.587459
Si -3.663534 6.381565 15.549213
C -4.429033 8.083294 15.549213
Si 3.047068 -0.088417 5.183071
C 2.281568 1.613312 5.183071
Si 3.047068 -0.088417 8.144826
C 2.281568 1.613312 8.144826
Si 3.047068 -0.088417 11.106581
C 2.281568 1.613312 11.106581
Si 0.932329 2.902275 8.144826
C 0.166830 4.604004 8.144826
Si 0.932329 2.902275 11.106581
C 0.166830 4.604004 11.106581
Si 0.932329 2.902275 14.068336
C 0.166830 4.604004 14.068336
Si -1.182409 5.892967 11.106581
C -1.947909 7.594696 11.106581
Si -1.182409 5.892967 14.068336
C -1.947909 7.594696 14.068336
Si -1.182409 5.892967 17.030091
C -1.947909 7.594696 17.030091
Si 5.528192 -0.577015 6.663949
C 4.762693 1.124714 6.663949
Si 5.528192 -0.577015 9.625704
C 4.762693 1.124714 9.625704
Si 5.528192 -0.577015 12.587459
C 4.762693 1.124714 12.587459
Si 3.413454 2.413676 9.625704
C 2.647955 4.115405 9.625704
Si 3.413454 2.413676 12.587459
C 2.647955 4.115405 12.587459
Si 3.413454 2.413676 15.549214
C 2.647955 4.115405 15.549214
Si 1.298715 5.404368 12.587459
C 0.533216 7.106097 12.587459
Si 1.298715 5.404368 15.549214
C 0.533216 7.106097 15.549214
Si 1.298715 5.404368 18.510969
C 0.533216 7.106097 18.510968
