54
A
Si 0.575507 0.406945 3.762670
C -0.298483 2.090833 3.585000
Si 0.575507 0.406945 6.701738
C -0.298483 2.090833 6.524068
Si 0.575507 0.406945 9.640806
C -0.298483 2.090833 9.463136
Si -1.594738 3.476134 5.742099
C -2.468728 5.160023 5.564430
Si -1.594738 3.476134 8.681167
C -2.468728 5.160023 8.503498
Si -1.594738 3.476134 11.620235
C -2.468728 5.160023 11.442566
Si -3.764983 6.545324 7.721529
C -4.638973 8.229212 7.543859
Si -3.764983 6.545324 10.660597
C -4.638973 8.229212 10.482927
Si -3.764983 6.545324 13.599665
C -4.638973 8.229212 13.421995
Si 3.022775 -0.164467 6.191842
C 2.148786 1.519421 6.014173
Si 3.022775 -0.164467 9.130910
C 2.148786 1.519421 8.953241
Si 3.022775 -0.164467 12.069978
C 2.148786 1.519421 11.892309
Si 0.852531 2.904722 8.171272
C -0.021459 4.588611 7.993602
Si 0.852531 2.904722 11.110340
C -0.021459 4.588611 10.932670
Si 0.852531 2.904722 14.049408
C -0.021459 4.588611 13.871738
Si -1.317714 5.973912 10.150701
C -2.191704 7.657800 9.973032
Si -1.317714 5.973912 13.089769
C -2.191704 7.657800 12.912100
Si -1.317714 5.973912 16.028837
C -2.191704 7.657800 15.851168
Si 5.470044 -0.735879 8.621015
C 4.596054 0.948009 8.443346
Si 5.470044 -0.735879 11.560083
C 4.596054 0.948009 11.382413
Si 5.470044 -0.735879 14.499151
C 4.596054 0.948009 14.321481
Si 3.299799 2.333310 10.600444
C 2.425810 4.017199 10.422775
Si 3.299799 2.333310 13.539512
C 2.425810 4.017199 13.361843
Si 3.299799 2.333310 16.478580
C 2.425810 4.017199 16.300911
Si 1.129554 5.402500 12.579874
C 0.255565 7.086388 12.402204
Si 1.129554 5.402500 15.518942
C 0.255565 7.086388 15.341272
Si 1.129554 5.402500 18.458010
C 0.255565 7.086388 18.280340
