54
A
Si 0.492135 0.347992 3.879900
C 0.249573 2.172225 3.762700
Si 0.492135 0.347992 6.936941
C 0.249573 2.172225 6.819740
Si 0.492135 0.347992 9.993981
C 0.249573 2.172225 9.876780
Si -1.389476 3.008992 4.367586
C -1.632038 4.833225 4.250386
Si -1.389476 3.008992 7.424626
C -1.632038 4.833225 7.307426
Si -1.389476 3.008992 10.481667
C -1.632038 4.833225 10.364466
Si -3.271087 5.669992 4.855272
C -3.513649 7.494225 4.738071
Si -3.271087 5.669992 7.912312
C -3.513649 7.494225 7.795111
Si -3.271087 5.669992 10.969352
C -3.513649 7.494225 10.852152
Si 3.115455 0.207210 7.977775
C 2.872893 2.031442 7.860575
Si 3.115455 0.207210 11.034815
C 2.872893 2.031442 10.917615
Si 3.115455 0.207210 14.091856
C 2.872893 2.031442 13.974655
Si 1.233844 2.868210 8.465461
C 0.991282 4.692442 8.348260
Si 1.233844 2.868210 11.522501
C 0.991282 4.692442 11.405300
Si 1.233844 2.868210 14.579541
C 0.991282 4.692442 14.462341
Si -0.647767 5.529209 8.953146
C -0.890329 7.353442 8.835946
Si -0.647767 5.529209 12.010187
C -0.890329 7.353442 11.892986
Si -0.647767 5.529209 15.067227
C -0.890329 7.353442 14.950026
Si 5.738775 0.066427 12.075650
C 5.496213 1.890660 11.958449
Si 5.738775 0.066427 15.132690
C 5.496213 1.890660 15.015489
Si 5.738775 0.066427 18.189730
C 5.496213 1.890660 18.072530
Si 3.857164 2.727427 12.563335
C 3.614602 4.551660 12.446135
Si 3.857164 2.727427 15.620375
C 3.614602 4.551660 15.503175
Si 3.857164 2.727427 18.677416
C 3.614602 4.551660 18.560215
Si 1.975553 5.388427 13.051021
C 1.732991 7.212660 12.933820
Si 1.975553 5.388427 16.108061
C 1.732991 7.212660 15.990861
Si 1.975553 5.388427 19.165101
C 1.732991 7.212660 19.047901
