54
A
Si 0.539285 0.381332 3.756075
C -0.003109 2.128960 3.756075
Si 0.539285 0.381332 6.760935
C -0.003109 2.128960 6.760935
Si 0.539285 0.381332 9.765796
C -0.003109 2.128960 9.765796
Si -1.469991 3.222877 6.760935
C -2.012386 4.970506 6.760935
Si -1.469991 3.222877 9.765796
C -2.012386 4.970506 9.765796
Si -1.469991 3.222877 12.770656
C -2.012386 4.970506 12.770656
Si -3.479267 6.064423 9.765796
C -4.021662 7.812051 9.765796
Si -3.479267 6.064423 12.770656
C -4.021662 7.812051 12.770656
Si -3.479267 6.064423 15.775516
C -4.021662 7.812051 15.775516
Si 3.084736 0.050078 5.258505
C 2.542342 1.797707 5.258505
Si 3.084736 0.050078 8.263365
C 2.542342 1.797707 8.263365
Si 3.084736 0.050078 11.268226
C 2.542342 1.797707 11.268226
Si 1.075460 2.891624 8.263365
C 0.533066 4.639252 8.263365
Si 1.075460 2.891624 11.268226
C 0.533066 4.639252 11.268226
Si 1.075460 2.891624 14.273086
C 0.533066 4.639252 14.273086
Si -0.933816 5.733169 11.268226
C -1.476210 7.480798 11.268226
Si -0.933816 5.733169 14.273086
C -1.476210 7.480798 14.273086
Si -0.933816 5.733169 17.277946
C -1.476210 7.480798 17.277946
Si 5.630187 -0.281175 6.760935
C 5.087793 1.466454 6.760935
Si 5.630187 -0.281175 9.765795
C 5.087793 1.466454 9.765795
Si 5.630187 -0.281175 12.770656
C 5.087793 1.466454 12.770656
Si 3.620911 2.560370 9.765795
C 3.078517 4.307999 9.765795
Si 3.620911 2.560370 12.770656
C 3.078517 4.307999 12.770656
Si 3.620911 2.560370 15.775516
C 3.078517 4.307999 15.775516
Si 1.611635 5.401916 12.770656
C 1.069241 7.149544 12.770656
Si 1.611635 5.401916 15.775516
C 1.069241 7.149544 15.775516
Si 1.611635 5.401916 18.780376
C 1.069241 7.149544 18.780376
