54
A
Si 0.574689 0.406366 3.676671
C -0.288729 2.091843 3.676671
Si 0.574689 0.406366 6.618008
C -0.288729 2.091843 6.618008
Si 0.574689 0.406366 9.559344
C -0.288729 2.091843 9.559344
Si -1.590005 3.467706 6.618008
C -2.453423 5.153183 6.618007
Si -1.590005 3.467706 9.559344
C -2.453423 5.153183 9.559344
Si -1.590005 3.467706 12.500681
C -2.453423 5.153183 12.500681
Si -3.754699 6.529046 9.559344
C -4.618117 8.214522 9.559344
Si -3.754699 6.529046 12.500681
C -4.618117 8.214522 12.500681
Si -3.754699 6.529046 15.442017
C -4.618117 8.214522 15.442017
Si 3.025343 -0.156764 5.147339
C 2.161925 1.528712 5.147339
Si 3.025343 -0.156764 8.088676
C 2.161925 1.528712 8.088676
Si 3.025343 -0.156764 11.030013
C 2.161925 1.528712 11.030013
Si 0.860649 2.904576 8.088676
C -0.002769 4.590052 8.088676
Si 0.860649 2.904576 11.030013
C -0.002769 4.590052 11.030013
Si 0.860649 2.904576 13.971349
C -0.002769 4.590052 13.971349
Si -1.304045 5.965915 11.030013
C -2.167463 7.651392 11.030013
Si -1.304045 5.965915 13.971349
C -2.167463 7.651392 13.971349
Si -1.304045 5.965915 16.912686
C -2.167463 7.651392 16.912686
Si 5.475998 -0.719895 6.618008
C 4.612580 0.965581 6.618008
Si 5.475998 -0.719895 9.559344
C 4.612580 0.965581 9.559344
Si 5.475998 -0.719895 12.500681
C 4.612580 0.965581 12.500681
Si 3.311303 2.341445 9.559344
C 2.447885 4.026921 9.559344
Si 3.311303 2.341445 12.500681
C 2.447885 4.026921 12.500681
Si 3.311303 2.341445 15.442018
C 2.447885 4.026921 15.442018
Si 1.146609 5.402785 12.500681
C 0.283191 7.088261 12.500681
Si 1.146609 5.402785 15.442018
C 0.283191 7.088261 15.442018
Si 1.146609 5.402785 18.383354
C 0.283191 7.088261 18.383354
