54
A
Si 0.522776 0.369658 3.781598
C 0.093826 2.144518 3.781598
Si 0.522776 0.369658 6.806877
C 0.093826 2.144518 6.806876
Si 0.522776 0.369658 9.832155
C 0.093826 2.144518 9.832155
Si -1.436545 3.140555 6.806877
C -1.865494 4.915415 6.806877
Si -1.436545 3.140555 9.832155
C -1.865494 4.915415 9.832155
Si -1.436545 3.140555 12.857434
C -1.865494 4.915415 12.857434
Si -3.395865 5.911452 9.832155
C -3.824815 7.686312 9.832155
Si -3.395865 5.911452 12.857434
C -3.824815 7.686312 12.857434
Si -3.395865 5.911452 15.882712
C -3.824815 7.686312 15.882712
Si 3.098697 0.112937 5.294237
C 2.669747 1.887796 5.294237
Si 3.098697 0.112937 8.319516
C 2.669747 1.887796 8.319516
Si 3.098697 0.112937 11.344794
C 2.669747 1.887796 11.344794
Si 1.139377 2.883834 8.319516
C 0.710427 4.658694 8.319516
Si 1.139377 2.883834 11.344794
C 0.710427 4.658694 11.344794
Si 1.139377 2.883834 14.370073
C 0.710427 4.658694 14.370073
Si -0.819943 5.654731 11.344794
C -1.248893 7.429591 11.344794
Si -0.819943 5.654731 14.370073
C -1.248893 7.429591 14.370073
Si -0.819943 5.654731 17.395351
C -1.248893 7.429591 17.395351
Si 5.674619 -0.143785 6.806876
C 5.245669 1.631075 6.806876
Si 5.674619 -0.143785 9.832155
C 5.245669 1.631075 9.832155
Si 5.674619 -0.143785 12.857433
C 5.245669 1.631075 12.857433
Si 3.715299 2.627113 9.832155
C 3.286349 4.401972 9.832155
Si 3.715299 2.627113 12.857433
C 3.286349 4.401972 12.857433
Si 3.715299 2.627113 15.882712
C 3.286349 4.401972 15.882712
Si 1.755978 5.398010 12.857433
C 1.327029 7.172869 12.857433
Si 1.755978 5.398010 15.882712
C 1.327029 7.172869 15.882712
Si 1.755978 5.398010 18.907990
C 1.327029 7.172869 18.907990
