54
A
Si 0.518768 0.366824 3.872782
C 0.115706 2.148215 3.701757
Si 0.518768 0.366824 6.902598
C 0.115706 2.148215 6.731573
Si 0.518768 0.366824 9.932414
C 0.115706 2.148215 9.761389
Si -1.429451 3.122022 4.704716
C -1.832513 4.903412 4.533692
Si -1.429451 3.122022 7.734532
C -1.832513 4.903412 7.563508
Si -1.429451 3.122022 10.764348
C -1.832513 4.903412 10.593323
Si -3.377670 5.877220 5.536650
C -3.780732 7.658610 5.365626
Si -3.377670 5.877220 8.566466
C -3.780732 7.658610 8.395442
Si -3.377670 5.877220 11.596282
C -3.780732 7.658610 11.425258
Si 3.101461 0.126666 7.585572
C 2.698399 1.908056 7.414547
Si 3.101461 0.126666 10.615388
C 2.698399 1.908056 10.444363
Si 3.101461 0.126666 13.645203
C 2.698399 1.908056 13.474179
Si 1.153242 2.881863 8.417506
C 0.750180 4.663253 8.246481
Si 1.153242 2.881863 11.447322
C 0.750180 4.663253 11.276297
Si 1.153242 2.881863 14.477138
C 0.750180 4.663253 14.306113
Si -0.794977 5.637061 9.249440
C -1.198039 7.418451 9.078415
Si -0.794977 5.637061 12.279256
C -1.198039 7.418451 12.108231
Si -0.794977 5.637061 15.309072
C -1.198039 7.418451 15.138047
Si 5.684154 -0.113493 11.298361
C 5.281091 1.667897 11.127336
Si 5.684154 -0.113493 14.328177
C 5.281091 1.667897 14.157152
Si 5.684154 -0.113493 17.357993
C 5.281091 1.667897 17.186968
Si 3.735935 2.641705 12.130295
C 3.332872 4.423095 11.959271
Si 3.735935 2.641705 15.160111
C 3.332872 4.423095 14.989087
Si 3.735935 2.641705 18.189927
C 3.332872 4.423095 18.018902
Si 1.787716 5.396902 12.962229
C 1.384654 7.178292 12.791205
Si 1.787716 5.396902 15.992045
C 1.384654 7.178292 15.821021
Si 1.787716 5.396902 19.021861
C 1.384654 7.178292 18.850837
