54
A
Si 0.520787 0.368252 3.871649
C 0.104750 2.146355 3.697219
Si 0.520787 0.368252 6.899196
C 0.104750 2.146355 6.724766
Si 0.520787 0.368252 9.926743
C 0.104750 2.146355 9.752313
Si -1.432982 3.131300 4.732271
C -1.849019 4.909403 4.557840
Si -1.432982 3.131300 7.759818
C -1.849019 4.909403 7.585388
Si -1.432982 3.131300 10.787365
C -1.849019 4.909403 10.612935
Si -3.386752 5.894347 5.592892
C -3.802789 7.672450 5.418462
Si -3.386752 5.894347 8.620439
C -3.802789 7.672450 8.446009
Si -3.386752 5.894347 11.647986
C -3.802789 7.672450 11.473556
Si 3.100094 0.119812 7.552348
C 2.684058 1.897915 7.377918
Si 3.100094 0.119812 10.579895
C 2.684058 1.897915 10.405465
Si 3.100094 0.119812 13.607442
C 2.684058 1.897915 13.433012
Si 1.146325 2.882860 8.412970
C 0.730288 4.660963 8.238539
Si 1.146325 2.882860 11.440517
C 0.730288 4.660963 11.266087
Si 1.146325 2.882860 14.468064
C 0.730288 4.660963 14.293634
Si -0.807445 5.645907 9.273591
C -1.223482 7.424010 9.099161
Si -0.807445 5.645907 12.301138
C -1.223482 7.424010 12.126708
Si -0.807445 5.645907 15.328686
C -1.223482 7.424010 15.154255
Si 5.679402 -0.128628 11.233047
C 5.263365 1.649475 11.058617
Si 5.679402 -0.128628 14.260594
C 5.263365 1.649475 14.086164
Si 5.679402 -0.128628 17.288142
C 5.263365 1.649475 17.113711
Si 3.725632 2.634420 12.093669
C 3.309595 4.412523 11.919239
Si 3.725632 2.634420 15.121216
C 3.309595 4.412523 14.946786
Si 3.725632 2.634420 18.148763
C 3.309595 4.412523 17.974333
Si 1.771863 5.397467 12.954290
C 1.355826 7.175570 12.779860
Si 1.771863 5.397467 15.981837
C 1.355826 7.175570 15.807407
Si 1.771863 5.397467 19.009385
C 1.355826 7.175570 18.834954
