54
A
Si 0.548904 0.388134 3.739060
C -0.066347 2.119569 3.739060
Si 0.548904 0.388134 6.730308
C -0.066347 2.119569 6.730308
Si 0.548904 0.388134 9.721556
C -0.066347 2.119569 9.721556
Si -1.493676 3.276778 6.730308
C -2.108927 5.008213 6.730308
Si -1.493676 3.276778 9.721556
C -2.108927 5.008213 9.721556
Si -1.493676 3.276778 12.712804
C -2.108927 5.008213 12.712804
Si -3.536256 6.165422 9.721556
C -4.151507 7.896857 9.721556
Si -3.536256 6.165422 12.712804
C -4.151507 7.896857 12.712804
Si -3.536256 6.165422 15.704052
C -4.151507 7.896857 15.704052
Si 3.074042 0.007193 5.234684
C 2.458791 1.738628 5.234684
Si 3.074042 0.007193 8.225932
C 2.458791 1.738628 8.225932
Si 3.074042 0.007193 11.217180
C 2.458791 1.738628 11.217180
Si 1.031462 2.895837 8.225932
C 0.416211 4.627272 8.225932
Si 1.031462 2.895837 11.217180
C 0.416211 4.627272 11.217180
Si 1.031462 2.895837 14.208428
C 0.416211 4.627272 14.208428
Si -1.011118 5.784481 11.217180
C -1.626369 7.515916 11.217180
Si -1.011118 5.784481 14.208428
C -1.626369 7.515916 14.208428
Si -1.011118 5.784481 17.199676
C -1.626369 7.515916 17.199676
Si 5.599179 -0.373749 6.730308
C 4.983928 1.357686 6.730308
Si 5.599179 -0.373749 9.721556
C 4.983928 1.357686 9.721556
Si 5.599179 -0.373749 12.712804
C 4.983928 1.357686 12.712804
Si 3.556599 2.514895 9.721556
C 2.941348 4.246330 9.721556
Si 3.556599 2.514895 12.712804
C 2.941348 4.246330 12.712804
Si 3.556599 2.514895 15.704052
C 2.941348 4.246330 15.704052
Si 1.514020 5.403540 12.712804
C 0.898768 7.134975 12.712804
Si 1.514020 5.403540 15.704052
C 0.898768 7.134975 15.704052
Si 1.514020 5.403540 18.695300
C 0.898768 7.134975 18.695300
