54
A
Si 0.580369 0.410383 3.653984
C -0.365899 2.084374 3.653984
Si 0.580369 0.410383 6.577171
C -0.365899 2.084374 6.577171
Si 0.580369 0.410383 9.500358
C -0.365899 2.084374 9.500358
Si -1.628731 3.534521 6.577171
C -2.574998 5.208513 6.577171
Si -1.628731 3.534521 9.500358
C -2.574998 5.208513 9.500358
Si -1.628731 3.534521 12.423545
C -2.574998 5.208513 12.423545
Si -3.837830 6.658659 9.500358
C -4.784098 8.332651 9.500358
Si -3.837830 6.658659 12.423545
C -4.784098 8.332651 12.423545
Si -3.837830 6.658659 15.346732
C -4.784098 8.332651 15.346732
Si 3.003938 -0.218999 5.115578
C 2.057671 1.454993 5.115578
Si 3.003938 -0.218999 8.038765
C 2.057671 1.454993 8.038765
Si 3.003938 -0.218999 10.961952
C 2.057671 1.454993 10.961952
Si 0.794839 2.905140 8.038765
C -0.151429 4.579131 8.038765
Si 0.794839 2.905140 10.961952
C -0.151429 4.579131 10.961952
Si 0.794839 2.905140 13.885139
C -0.151429 4.579131 13.885139
Si -1.414261 6.029278 10.961952
C -2.360528 7.703269 10.961952
Si -1.414261 6.029278 13.885139
C -2.360528 7.703269 13.885139
Si -1.414261 6.029278 16.808326
C -2.360528 7.703269 16.808326
Si 5.427508 -0.848380 6.577171
C 4.481240 0.825612 6.577171
Si 5.427508 -0.848380 9.500358
C 4.481240 0.825612 9.500358
Si 5.427508 -0.848380 12.423546
C 4.481240 0.825612 12.423546
Si 3.218408 2.275758 9.500358
C 2.272141 3.949750 9.500358
Si 3.218408 2.275758 12.423546
C 2.272141 3.949750 12.423545
Si 3.218408 2.275758 15.346733
C 2.272141 3.949750 15.346733
Si 1.009309 5.399896 12.423545
C 0.063041 7.073888 12.423545
Si 1.009309 5.399896 15.346733
C 0.063041 7.073888 15.346733
Si 1.009309 5.399896 18.269920
C 0.063041 7.073888 18.269920
