54
A
Si 0.568102 0.401709 3.795324
C -0.219588 2.099521 3.597720
Si 0.568102 0.401709 6.752542
C -0.219588 2.099521 6.554937
Si 0.568102 0.401709 9.709759
C -0.219588 2.099521 9.512155
Si -1.557738 3.408100 5.545255
C -2.345428 5.105912 5.347650
Si -1.557738 3.408100 8.502472
C -2.345428 5.105912 8.304868
Si -1.557738 3.408100 11.459690
C -2.345428 5.105912 11.262085
Si -3.683577 6.414491 7.295185
C -4.471268 8.112304 7.097580
Si -3.683577 6.414491 10.252402
C -4.471268 8.112304 10.054798
Si -3.683577 6.414491 13.209620
C -4.471268 8.112304 13.012016
Si 3.042456 -0.103453 6.481220
C 2.254765 1.594360 6.283616
Si 3.042456 -0.103453 9.438438
C 2.254765 1.594360 9.240833
Si 3.042456 -0.103453 12.395655
C 2.254765 1.594360 12.198051
Si 0.916616 2.902939 8.231151
C 0.128926 4.600751 8.033546
Si 0.916616 2.902939 11.188368
C 0.128926 4.600751 10.990764
Si 0.916616 2.902939 14.145586
C 0.128926 4.600751 13.947981
Si -1.209224 5.909330 9.981081
C -1.996914 7.607142 9.783476
Si -1.209224 5.909330 12.938298
C -1.996914 7.607142 12.740694
Si -1.209224 5.909330 15.895516
C -1.996914 7.607142 15.697912
Si 5.516809 -0.608614 9.167116
C 4.729119 1.089198 8.969512
Si 5.516809 -0.608614 12.124334
C 4.729119 1.089198 11.926729
Si 5.516809 -0.608614 15.081551
C 4.729119 1.089198 14.883947
Si 3.390969 2.397777 10.917047
C 2.603279 4.095590 10.719442
Si 3.390969 2.397777 13.874264
C 2.603279 4.095590 13.676660
Si 3.390969 2.397777 16.831482
C 2.603279 4.095590 16.633877
Si 1.265130 5.404169 12.666977
C 0.477439 7.101981 12.469373
Si 1.265130 5.404169 15.624194
C 0.477439 7.101981 15.426590
Si 1.265130 5.404169 18.581412
C 0.477439 7.101981 18.383808
