54
A
Si 0.528556 0.373745 3.773090
C 0.061237 2.139136 3.773090
Si 0.528556 0.373745 6.791563
C 0.061237 2.139136 6.791563
Si 0.528556 0.373745 9.810035
C 0.061237 2.139136 9.810035
Si -1.447416 3.168192 6.791563
C -1.914735 4.933582 6.791563
Si -1.447416 3.168192 9.810035
C -1.914735 4.933582 9.810035
Si -1.447416 3.168192 12.828508
C -1.914735 4.933582 12.828508
Si -3.423388 5.962639 9.810035
C -3.890707 7.728029 9.810035
Si -3.423388 5.962639 12.828508
C -3.890707 7.728029 12.828508
Si -3.423388 5.962639 15.846980
C -3.890707 7.728029 15.846980
Si 3.094321 0.092180 5.282327
C 2.627002 1.857571 5.282326
Si 3.094321 0.092180 8.300799
C 2.627002 1.857571 8.300799
Si 3.094321 0.092180 11.319271
C 2.627002 1.857571 11.319271
Si 1.118348 2.886627 8.300799
C 0.651029 4.652017 8.300799
Si 1.118348 2.886627 11.319271
C 0.651029 4.652017 11.319271
Si 1.118348 2.886627 14.337744
C 0.651029 4.652017 14.337744
Si -0.857624 5.681073 11.319271
C -1.324943 7.446464 11.319271
Si -0.857624 5.681073 14.337744
C -1.324943 7.446464 14.337744
Si -0.857624 5.681073 17.356216
C -1.324943 7.446464 17.356216
Si 5.660085 -0.189385 6.791563
C 5.192766 1.576005 6.791562
Si 5.660085 -0.189385 9.810035
C 5.192766 1.576005 9.810035
Si 5.660085 -0.189385 12.828507
C 5.192766 1.576005 12.828507
Si 3.684113 2.605061 9.810035
C 3.216794 4.370452 9.810035
Si 3.684113 2.605061 12.828507
C 3.216794 4.370452 12.828507
Si 3.684113 2.605061 15.846980
C 3.216794 4.370452 15.846980
Si 1.708141 5.399508 12.828507
C 1.240822 7.164898 12.828507
Si 1.708141 5.399508 15.846980
C 1.240822 7.164898 15.846980
Si 1.708141 5.399508 18.865452
C 1.240822 7.164898 18.865452
