54
A
Si 0.469250 0.331810 3.877390
C 0.352885 2.192291 3.816256
Si 0.469250 0.331810 6.954848
C 0.352885 2.192291 6.893715
Si 0.469250 0.331810 10.032307
C 0.352885 2.192291 9.971173
Si -1.362405 2.922161 4.106889
C -1.478770 4.782643 4.045755
Si -1.362405 2.922161 7.184348
C -1.478770 4.782643 7.123214
Si -1.362405 2.922161 10.261806
C -1.478770 4.782643 10.200672
Si -3.194061 5.512513 4.336388
C -3.310425 7.372995 4.275254
Si -3.194061 5.512513 7.413847
C -3.310425 7.372995 7.352713
Si -3.194061 5.512513 10.491305
C -3.310425 7.372995 10.430172
Si 3.123040 0.265559 8.264078
C 3.006676 2.126041 8.202945
Si 3.123040 0.265559 11.341537
C 3.006676 2.126041 11.280403
Si 3.123040 0.265559 14.418995
C 3.006676 2.126041 14.357862
Si 1.291385 2.855911 8.493577
C 1.175020 4.716392 8.432444
Si 1.291385 2.855911 11.571036
C 1.175020 4.716392 11.509902
Si 1.291385 2.855911 14.648495
C 1.175020 4.716392 14.587361
Si -0.540270 5.446263 8.723077
C -0.656635 7.306744 8.661943
Si -0.540270 5.446263 11.800535
C -0.656635 7.306744 11.739401
Si -0.540270 5.446263 14.877994
C -0.656635 7.306744 14.816860
Si 5.776831 0.199308 12.650767
C 5.660466 2.059790 12.589633
Si 5.776831 0.199308 15.728225
C 5.660466 2.059790 15.667091
Si 5.776831 0.199308 18.805684
C 5.660466 2.059790 18.744550
Si 3.945175 2.789660 12.880266
C 3.828811 4.650142 12.819132
Si 3.945175 2.789660 15.957724
C 3.828811 4.650142 15.896591
Si 3.945175 2.789660 19.035183
C 3.828811 4.650142 18.974049
Si 2.113520 5.380012 13.109765
C 1.997156 7.240493 13.048631
Si 2.113520 5.380012 16.187224
C 1.997156 7.240493 16.126090
Si 2.113520 5.380012 19.264682
C 1.997156 7.240493 19.203548
