54
A
Si 0.479729 0.339220 3.835480
C 0.306661 2.183155 3.835479
Si 0.479729 0.339220 6.903863
C 0.306661 2.183155 6.903863
Si 0.479729 0.339220 9.972247
C 0.306661 2.183155 9.972247
Si -1.374128 2.960971 6.903864
C -1.547197 4.804906 6.903863
Si -1.374128 2.960971 9.972247
C -1.547197 4.804906 9.972247
Si -1.374128 2.960971 13.040631
C -1.547197 4.804906 13.040631
Si -3.227986 5.582722 9.972247
C -3.401055 7.426657 9.972247
Si -3.227986 5.582722 13.040631
C -3.401055 7.426657 13.040631
Si -3.227986 5.582722 16.109015
C -3.401055 7.426657 16.109015
Si 3.119977 0.239844 5.369671
C 2.946909 2.083779 5.369671
Si 3.119977 0.239844 8.438055
C 2.946909 2.083779 8.438055
Si 3.119977 0.239844 11.506439
C 2.946909 2.083779 11.506439
Si 1.266119 2.861595 8.438055
C 1.093051 4.705530 8.438055
Si 1.266119 2.861595 11.506439
C 1.093051 4.705530 11.506439
Si 1.266119 2.861595 14.574823
C 1.093051 4.705530 14.574822
Si -0.587738 5.483346 11.506439
C -0.760807 7.327281 11.506439
Si -0.587738 5.483346 14.574823
C -0.760807 7.327281 14.574822
Si -0.587738 5.483346 17.643206
C -0.760807 7.327281 17.643206
Si 5.760225 0.140468 6.903863
C 5.587157 1.984403 6.903863
Si 5.760225 0.140468 9.972246
C 5.587157 1.984403 9.972246
Si 5.760225 0.140468 13.040630
C 5.587157 1.984403 13.040630
Si 3.906367 2.762219 9.972247
C 3.733299 4.606154 9.972246
Si 3.906367 2.762219 13.040630
C 3.733299 4.606154 13.040630
Si 3.906367 2.762219 16.109014
C 3.733299 4.606154 16.109014
Si 2.052510 5.383970 13.040630
C 1.879441 7.227905 13.040630
Si 2.052510 5.383970 16.109014
C 1.879441 7.227905 16.109014
Si 2.052510 5.383970 19.177398
C 1.879441 7.227905 19.177398
