54
A
Si 0.469250 0.331810 3.846823
C 0.352885 2.192291 3.846823
Si 0.469250 0.331810 6.924282
C 0.352885 2.192291 6.924281
Si 0.469250 0.331810 10.001740
C 0.352885 2.192291 10.001740
Si -1.362405 2.922161 6.924282
C -1.478770 4.782643 6.924282
Si -1.362405 2.922161 10.001740
C -1.478770 4.782643 10.001740
Si -1.362405 2.922161 13.079199
C -1.478770 4.782643 13.079199
Si -3.194061 5.512513 10.001740
C -3.310425 7.372995 10.001740
Si -3.194061 5.512513 13.079199
C -3.310425 7.372995 13.079199
Si -3.194061 5.512513 16.156658
C -3.310425 7.372995 16.156657
Si 3.123040 0.265559 5.385552
C 3.006676 2.126041 5.385552
Si 3.123040 0.265559 8.463011
C 3.006676 2.126041 8.463010
Si 3.123040 0.265559 11.540469
C 3.006676 2.126041 11.540469
Si 1.291385 2.855911 8.463011
C 1.175020 4.716392 8.463010
Si 1.291385 2.855911 11.540469
C 1.175020 4.716392 11.540469
Si 1.291385 2.855911 14.617928
C 1.175020 4.716392 14.617928
Si -0.540270 5.446263 11.540469
C -0.656635 7.306744 11.540469
Si -0.540270 5.446263 14.617928
C -0.656635 7.306744 14.617928
Si -0.540270 5.446263 17.695386
C -0.656635 7.306744 17.695386
Si 5.776831 0.199308 6.924281
C 5.660466 2.059790 6.924281
Si 5.776831 0.199308 10.001739
C 5.660466 2.059790 10.001739
Si 5.776831 0.199308 13.079198
C 5.660466 2.059790 13.079198
Si 3.945175 2.789660 10.001740
C 3.828811 4.650142 10.001739
Si 3.945175 2.789660 13.079198
C 3.828811 4.650142 13.079198
Si 3.945175 2.789660 16.156657
C 3.828811 4.650142 16.156656
Si 2.113520 5.380012 13.079198
C 1.997156 7.240493 13.079198
Si 2.113520 5.380012 16.156657
C 1.997156 7.240493 16.156657
Si 2.113520 5.380012 19.234115
C 1.997156 7.240493 19.234115
