54
A
Si 0.585192 0.413793 3.619953
C -0.477957 2.075786 3.619953
Si 0.585192 0.413793 6.515916
C -0.477957 2.075786 6.515916
Si 0.585192 0.413793 9.411879
C -0.477957 2.075786 9.411879
Si -1.690516 3.632129 6.515916
C -2.753664 5.294121 6.515916
Si -1.690516 3.632129 9.411879
C -2.753664 5.294121 9.411879
Si -1.690516 3.632129 12.307842
C -2.753664 5.294121 12.307841
Si -3.966223 6.850465 9.411879
C -5.029371 8.512457 9.411879
Si -3.966223 6.850465 12.307841
C -5.029371 8.512457 12.307841
Si -3.966223 6.850465 15.203804
C -5.029371 8.512457 15.203804
Si 2.968134 -0.314964 5.067935
C 1.904986 1.347028 5.067935
Si 2.968134 -0.314964 7.963898
C 1.904986 1.347028 7.963898
Si 2.968134 -0.314964 10.859861
C 1.904986 1.347028 10.859861
Si 0.692427 2.903372 7.963898
C -0.370722 4.565364 7.963898
Si 0.692427 2.903372 10.859860
C -0.370722 4.565364 10.859860
Si 0.692427 2.903372 13.755823
C -0.370722 4.565364 13.755823
Si -1.583281 6.121707 10.859860
C -2.646429 7.783700 10.859860
Si -1.583281 6.121707 13.755823
C -2.646429 7.783700 13.755823
Si -1.583281 6.121707 16.651786
C -2.646429 7.783700 16.651786
Si 5.351076 -1.043722 6.515917
C 4.287928 0.618271 6.515917
Si 5.351076 -1.043722 9.411879
C 4.287928 0.618271 9.411879
Si 5.351076 -1.043722 12.307842
C 4.287928 0.618271 12.307842
Si 3.075369 2.174614 9.411879
C 2.012221 3.836607 9.411879
Si 3.075369 2.174614 12.307842
C 2.012221 3.836607 12.307842
Si 3.075369 2.174614 15.203805
C 2.012221 3.836607 15.203805
Si 0.799662 5.392950 12.307842
C -0.263487 7.054943 12.307842
Si 0.799662 5.392950 15.203805
C -0.263487 7.054943 15.203805
Si 0.799662 5.392950 18.099767
C -0.263487 7.054943 18.099767
