54
A
Si 0.535832 0.378890 3.761747
C 0.018216 2.132265 3.761747
Si 0.535832 0.378890 6.771145
C 0.018216 2.132265 6.771145
Si 0.535832 0.378890 9.780542
C 0.018216 2.132265 9.780542
Si -1.462343 3.204736 6.771145
C -1.979959 4.958111 6.771145
Si -1.462343 3.204736 9.780542
C -1.979959 4.958111 9.780542
Si -1.462343 3.204736 12.789940
C -1.979959 4.958111 12.789940
Si -3.460518 6.030582 9.780542
C -3.978133 7.783957 9.780542
Si -3.460518 6.030582 12.789940
C -3.978133 7.783957 12.789940
Si -3.460518 6.030582 15.799337
C -3.978133 7.783957 15.799337
Si 3.088054 0.064199 5.266446
C 2.570438 1.817574 5.266446
Si 3.088054 0.064199 8.275843
C 2.570438 1.817574 8.275843
Si 3.088054 0.064199 11.285241
C 2.570438 1.817574 11.285241
Si 1.089879 2.890045 8.275843
C 0.572264 4.643420 8.275843
Si 1.089879 2.890045 11.285241
C 0.572264 4.643420 11.285241
Si 1.089879 2.890045 14.294639
C 0.572264 4.643420 14.294638
Si -0.908296 5.715891 11.285241
C -1.425911 7.469266 11.285241
Si -0.908296 5.715891 14.294639
C -1.425911 7.469266 14.294638
Si -0.908296 5.715891 17.304036
C -1.425911 7.469266 17.304036
Si 5.640276 -0.250491 6.771144
C 5.122661 1.502884 6.771144
Si 5.640276 -0.250491 9.780542
C 5.122661 1.502884 9.780542
Si 5.640276 -0.250491 12.789940
C 5.122661 1.502884 12.789939
Si 3.642102 2.575355 9.780542
C 3.124486 4.328729 9.780542
Si 3.642102 2.575355 12.789940
C 3.124486 4.328729 12.789939
Si 3.642102 2.575355 15.799337
C 3.124486 4.328729 15.799337
Si 1.643927 5.401200 12.789940
C 1.126311 7.154575 12.789940
Si 1.643927 5.401200 15.799337
C 1.126311 7.154575 15.799337
Si 1.643927 5.401200 18.808735
C 1.126311 7.154575 18.808735
