54
A
Si 0.494524 0.349681 3.818464
C 0.238248 2.170104 3.818464
Si 0.494524 0.349681 6.873236
C 0.238248 2.170104 6.873236
Si 0.494524 0.349681 9.928008
C 0.238248 2.170104 9.928007
Si -1.392637 3.018531 6.873236
C -1.648913 4.838954 6.873236
Si -1.392637 3.018531 9.928008
C -1.648913 4.838954 9.928007
Si -1.392637 3.018531 12.982779
C -1.648913 4.838954 12.982779
Si -3.279799 5.687381 9.928008
C -3.536075 7.507804 9.928008
Si -3.279799 5.687381 12.982779
C -3.536075 7.507804 12.982779
Si -3.279799 5.687381 16.037551
C -3.536075 7.507804 16.037551
Si 3.114459 0.200617 5.345850
C 2.858183 2.021040 5.345850
Si 3.114459 0.200617 8.400621
C 2.858183 2.021040 8.400621
Si 3.114459 0.200617 11.455393
C 2.858183 2.021040 11.455393
Si 1.227297 2.869467 8.400622
C 0.971021 4.689890 8.400621
Si 1.227297 2.869467 11.455393
C 0.971021 4.689890 11.455393
Si 1.227297 2.869467 14.510165
C 0.971021 4.689890 14.510165
Si -0.659865 5.538317 11.455393
C -0.916141 7.358740 11.455393
Si -0.659865 5.538317 14.510165
C -0.916141 7.358740 14.510165
Si -0.659865 5.538317 17.564936
C -0.916141 7.358740 17.564936
Si 5.734393 0.051553 6.873235
C 5.478117 1.871976 6.873235
Si 5.734393 0.051553 9.928007
C 5.478117 1.871976 9.928007
Si 5.734393 0.051553 12.982779
C 5.478117 1.871976 12.982778
Si 3.847231 2.720403 9.928007
C 3.590955 4.540826 9.928007
Si 3.847231 2.720403 12.982779
C 3.590955 4.540826 12.982778
Si 3.847231 2.720403 16.037550
C 3.590955 4.540826 16.037550
Si 1.960070 5.389253 12.982779
C 1.703794 7.209676 12.982779
Si 1.960070 5.389253 16.037550
C 1.703794 7.209676 16.037550
Si 1.960070 5.389253 19.092322
C 1.703794 7.209676 19.092322
