54
A
Si 0.496882 0.351349 3.815629
C 0.226954 2.168005 3.815628
Si 0.496882 0.351349 6.868131
C 0.226954 2.168005 6.868131
Si 0.496882 0.351349 9.920634
C 0.226954 2.168005 9.920634
Si -1.395830 3.028048 6.868131
C -1.665758 4.844705 6.868131
Si -1.395830 3.028048 9.920634
C -1.665758 4.844705 9.920634
Si -1.395830 3.028048 12.973137
C -1.665758 4.844705 12.973137
Si -3.288542 5.704748 9.920634
C -3.558471 7.521405 9.920634
Si -3.288542 5.704748 12.973137
C -3.558471 7.521405 12.973137
Si -3.288542 5.704748 16.025640
C -3.558471 7.521405 16.025640
Si 3.113431 0.194003 5.341880
C 2.843503 2.010660 5.341880
Si 3.113431 0.194003 8.394383
C 2.843503 2.010660 8.394382
Si 3.113431 0.194003 11.446885
C 2.843503 2.010660 11.446885
Si 1.220719 2.870703 8.394383
C 0.950791 4.687360 8.394382
Si 1.220719 2.870703 11.446886
C 0.950791 4.687360 11.446885
Si 1.220719 2.870703 14.499388
C 0.950791 4.687360 14.499388
Si -0.671994 5.547403 11.446886
C -0.941922 7.364059 11.446885
Si -0.671994 5.547403 14.499388
C -0.941922 7.364059 14.499388
Si -0.671994 5.547403 17.551891
C -0.941922 7.364059 17.551891
Si 5.729980 0.036658 6.868131
C 5.460052 1.853315 6.868131
Si 5.729980 0.036658 9.920634
C 5.460052 1.853315 9.920634
Si 5.729980 0.036658 12.973137
C 5.460052 1.853315 12.973136
Si 3.837267 2.713358 9.920634
C 3.567339 4.530014 9.920634
Si 3.837267 2.713358 12.973137
C 3.567339 4.530014 12.973136
Si 3.837267 2.713358 16.025640
C 3.567339 4.530014 16.025639
Si 1.944555 5.390057 12.973137
C 1.674627 7.206714 12.973137
Si 1.944555 5.390057 16.025640
C 1.674627 7.206714 16.025639
Si 1.944555 5.390057 19.078142
C 1.674627 7.206714 19.078142
