54
A
Si 0.550400 0.389191 3.839678
C -0.076778 2.118080 3.632770
Si 0.550400 0.389191 6.828657
C -0.076778 2.118080 6.621750
Si 0.550400 0.389191 9.817636
C -0.076778 2.118080 9.610729
Si -1.497731 3.285685 5.187985
C -2.124909 5.014574 4.981077
Si -1.497731 3.285685 8.176964
C -2.124909 5.014574 7.970057
Si -1.497731 3.285685 11.165943
C -2.124909 5.014574 10.959036
Si -3.545861 6.182179 6.536292
C -4.173040 7.911068 6.329385
Si -3.545861 6.182179 9.525271
C -4.173040 7.911068 9.318364
Si -3.545861 6.182179 12.514251
C -4.173040 7.911068 12.307343
Si 3.072152 -0.000031 6.974840
C 2.444973 1.728857 6.767932
Si 3.072152 -0.000031 9.963819
C 2.444973 1.728857 9.756912
Si 3.072152 -0.000031 12.952798
C 2.444973 1.728857 12.745891
Si 1.024021 2.896463 8.323147
C 0.396843 4.625351 8.116239
Si 1.024021 2.896463 11.312126
C 0.396843 4.625351 11.105219
Si 1.024021 2.896463 14.301105
C 0.396843 4.625351 14.094198
Si -1.024109 5.792957 9.671454
C -1.651288 7.521845 9.464546
Si -1.024109 5.792957 12.660433
C -1.651288 7.521845 12.453526
Si -1.024109 5.792957 15.649412
C -1.651288 7.521845 15.442505
Si 5.593904 -0.389254 10.110002
C 4.966725 1.339635 9.903094
Si 5.593904 -0.389254 13.098981
C 4.966725 1.339635 12.892074
Si 5.593904 -0.389254 16.087960
C 4.966725 1.339635 15.881053
Si 3.545773 2.507240 11.458309
C 2.918595 4.236129 11.251401
Si 3.545773 2.507240 14.447288
C 2.918595 4.236129 14.240381
Si 3.545773 2.507240 17.436267
C 2.918595 4.236129 17.229360
Si 1.497643 5.403734 12.806616
C 0.870464 7.132623 12.599708
Si 1.497643 5.403734 15.795595
C 0.870464 7.132623 15.588688
Si 1.497643 5.403734 18.784574
C 0.870464 7.132623 18.577667
