54
A
Si 0.558726 0.395079 3.822663
C -0.138722 2.109603 3.615755
Si 0.558726 0.395079 6.798030
C -0.138722 2.109603 6.591122
Si 0.558726 0.395079 9.773397
C -0.138722 2.109603 9.566490
Si -1.522709 3.338672 5.343094
C -2.220156 5.053196 5.136187
Si -1.522709 3.338672 8.318461
C -2.220156 5.053196 8.111554
Si -1.522709 3.338672 11.293828
C -2.220156 5.053196 11.086921
Si -3.604143 6.282264 6.863525
C -4.301591 7.996789 6.656618
Si -3.604143 6.282264 9.838892
C -4.301591 7.996789 9.631985
Si -3.604143 6.282264 12.814259
C -4.301591 7.996789 12.607352
Si 3.060164 -0.043832 6.765282
C 2.362716 1.670693 6.558375
Si 3.060164 -0.043832 9.740649
C 2.362716 1.670693 9.533742
Si 3.060164 -0.043832 12.716016
C 2.362716 1.670693 12.509109
Si 0.978730 2.899761 8.285713
C 0.281282 4.614286 8.078806
Si 0.978730 2.899761 11.261080
C 0.281282 4.614286 11.054173
Si 0.978730 2.899761 14.236448
C 0.281282 4.614286 14.029540
Si -1.102705 5.843354 9.806145
C -1.800153 7.557878 9.599237
Si -1.102705 5.843354 12.781512
C -1.800153 7.557878 12.574604
Si -1.102705 5.843354 15.756879
C -1.800153 7.557878 15.549972
Si 5.561602 -0.482743 9.707901
C 4.864155 1.231782 9.500994
Si 5.561602 -0.482743 12.683268
C 4.864155 1.231782 12.476361
Si 5.561602 -0.482743 15.658636
C 4.864155 1.231782 15.451728
Si 3.480168 2.460850 11.228333
C 2.782720 4.175375 11.021425
Si 3.480168 2.460850 14.203700
C 2.782720 4.175375 13.996792
Si 3.480168 2.460850 17.179067
C 2.782720 4.175375 16.972160
Si 1.398733 5.404443 12.748764
C 0.701286 7.118968 12.541857
Si 1.398733 5.404443 15.724131
C 0.701286 7.118968 15.517224
Si 1.398733 5.404443 18.699498
C 0.701286 7.118968 18.492591
