54
A
Si 0.576294 0.407501 3.670999
C -0.308206 2.089845 3.670999
Si 0.576294 0.407501 6.607798
C -0.308206 2.089845 6.607798
Si 0.576294 0.407501 9.544598
C -0.308206 2.089845 9.544598
Si -1.599502 3.484541 6.607798
C -2.484002 5.166884 6.607798
Si -1.599502 3.484541 9.544598
C -2.484002 5.166884 9.544598
Si -1.599502 3.484541 12.481397
C -2.484002 5.166884 12.481397
Si -3.775297 6.561580 9.544598
C -4.659797 8.243924 9.544598
Si -3.775297 6.561580 12.481397
C -4.659797 8.243924 12.481397
Si -3.775297 6.561580 15.418196
C -4.659797 8.243924 15.418196
Si 3.020177 -0.172192 5.139399
C 2.135677 1.510152 5.139399
Si 3.020177 -0.172192 8.076198
C 2.135677 1.510152 8.076198
Si 3.020177 -0.172192 11.012997
C 2.135677 1.510152 11.012997
Si 0.844381 2.904847 8.076198
C -0.040119 4.587191 8.076198
Si 0.844381 2.904847 11.012997
C -0.040119 4.587191 11.012997
Si 0.844381 2.904847 13.949797
C -0.040119 4.587191 13.949797
Si -1.331414 5.981887 11.012997
C -2.215914 7.664230 11.012997
Si -1.331414 5.981887 13.949797
C -2.215914 7.664230 13.949797
Si -1.331414 5.981887 16.886596
C -2.215914 7.664230 16.886596
Si 5.464060 -0.751885 6.607799
C 4.579560 0.930458 6.607799
Si 5.464060 -0.751885 9.544598
C 4.579560 0.930458 9.544598
Si 5.464060 -0.751885 12.481397
C 4.579560 0.930458 12.481397
Si 3.288264 2.325154 9.544598
C 2.403764 4.007498 9.544598
Si 3.288264 2.325154 12.481397
C 2.403764 4.007498 12.481397
Si 3.288264 2.325154 15.418196
C 2.403764 4.007498 15.418196
Si 1.112469 5.402193 12.481397
C 0.227969 7.084537 12.481397
Si 1.112469 5.402193 15.418196
C 0.227969 7.084537 15.418196
Si 1.112469 5.402193 18.354996
C 0.227969 7.084537 18.354996
