54
A
Si 0.560006 0.395984 3.716373
C -0.148938 2.108267 3.716373
Si 0.560006 0.395984 6.689472
C -0.148938 2.108267 6.689471
Si 0.560006 0.395984 9.662570
C -0.148938 2.108267 9.662570
Si -1.526979 3.347426 6.689472
C -2.235923 5.059709 6.689471
Si -1.526979 3.347426 9.662570
C -2.235923 5.059709 9.662570
Si -1.526979 3.347426 12.635668
C -2.235923 5.059709 12.635668
Si -3.613965 6.298869 9.662570
C -4.322908 8.011152 9.662570
Si -3.613965 6.298869 12.635668
C -4.322908 8.011152 12.635668
Si -3.613965 6.298869 15.608767
C -4.322908 8.011152 15.608767
Si 3.058058 -0.051208 5.202922
C 2.349115 1.661075 5.202922
Si 3.058058 -0.051208 8.176021
C 2.349115 1.661075 8.176021
Si 3.058058 -0.051208 11.149119
C 2.349115 1.661075 11.149119
Si 0.971073 2.900234 8.176021
C 0.262130 4.612517 8.176021
Si 0.971073 2.900234 11.149119
C 0.262130 4.612517 11.149119
Si 0.971073 2.900234 14.122218
C 0.262130 4.612517 14.122218
Si -1.115912 5.851677 11.149119
C -1.824856 7.563960 11.149119
Si -1.115912 5.851677 14.122218
C -1.824856 7.563960 14.122218
Si -1.115912 5.851677 17.095316
C -1.824856 7.563960 17.095316
Si 5.556111 -0.498400 6.689472
C 4.847167 1.213883 6.689471
Si 5.556111 -0.498400 9.662570
C 4.847167 1.213883 9.662570
Si 5.556111 -0.498400 12.635668
C 4.847167 1.213883 12.635668
Si 3.469126 2.453042 9.662570
C 2.760182 4.165325 9.662570
Si 3.469126 2.453042 12.635668
C 2.760182 4.165325 12.635668
Si 3.469126 2.453042 15.608767
C 2.760182 4.165325 15.608767
Si 1.382141 5.404485 12.635668
C 0.673197 7.116768 12.635668
Si 1.382141 5.404485 15.608767
C 0.673197 7.116768 15.608767
Si 1.382141 5.404485 18.581865
C 0.673197 7.116768 18.581865
