54
A
Si 0.474551 0.335558 3.878529
C 0.329711 2.187680 3.803773
Si 0.474551 0.335558 6.951450
C 0.329711 2.187680 6.876694
Si 0.474551 0.335558 10.024372
C 0.329711 2.187680 9.949616
Si -1.368205 2.941610 4.165403
C -1.513045 4.793731 4.090647
Si -1.368205 2.941610 7.238324
C -1.513045 4.793731 7.163568
Si -1.368205 2.941610 10.311246
C -1.513045 4.793731 10.236490
Si -3.210962 5.547661 4.452277
C -3.355802 7.399782 4.377521
Si -3.210962 5.547661 7.525198
C -3.355802 7.399782 7.450442
Si -3.210962 5.547661 10.598119
C -3.355802 7.399782 10.523363
Si 3.121570 0.252745 8.201037
C 2.976731 2.104866 8.126281
Si 3.121570 0.252745 11.273958
C 2.976731 2.104866 11.199202
Si 3.121570 0.252745 14.346879
C 2.976731 2.104866 14.272123
Si 1.278814 2.858796 8.487911
C 1.133974 4.710918 8.413155
Si 1.278814 2.858796 11.560832
C 1.133974 4.710918 11.486076
Si 1.278814 2.858796 14.633753
C 1.133974 4.710918 14.558997
Si -0.563943 5.464848 8.774785
C -0.708782 7.316969 8.700029
Si -0.563943 5.464848 11.847706
C -0.708782 7.316969 11.772950
Si -0.563943 5.464848 14.920627
C -0.708782 7.316969 14.845871
Si 5.768590 0.169932 12.523544
C 5.623750 2.022053 12.448788
Si 5.768590 0.169932 15.596465
C 5.623750 2.022053 15.521710
Si 5.768590 0.169932 18.669387
C 5.623750 2.022053 18.594631
Si 3.925833 2.775983 12.810418
C 3.780993 4.628104 12.735662
Si 3.925833 2.775983 15.883339
C 3.780993 4.628104 15.808583
Si 3.925833 2.775983 18.956261
C 3.780993 4.628104 18.881505
Si 2.083077 5.382034 13.097292
C 1.938237 7.234156 13.022536
Si 2.083077 5.382034 16.170213
C 1.938237 7.234156 16.095457
Si 2.083077 5.382034 19.243134
C 1.938237 7.234156 19.168379
