54
A
Si 0.585822 0.414239 3.599735
C -0.567950 2.071024 3.583455
Si 0.585822 0.414239 6.473011
C -0.567950 2.071024 6.456730
Si 0.585822 0.414239 9.346286
C -0.567950 2.071024 9.330006
Si -1.745391 3.711073 6.411098
C -2.899164 5.367858 6.394818
Si -1.745391 3.711073 9.284374
C -2.899164 5.367858 9.268094
Si -1.745391 3.711073 12.157650
C -2.899164 5.367858 12.141370
Si -4.076605 7.007907 9.222462
C -5.230377 8.664692 9.206182
Si -4.076605 7.007907 12.095738
C -5.230377 8.664692 12.079457
Si -4.076605 7.007907 14.969013
C -5.230377 8.664692 14.952733
Si 2.934909 -0.397332 5.098285
C 1.781136 1.259454 5.082005
Si 2.934909 -0.397332 7.971561
C 1.781136 1.259454 7.955281
Si 2.934909 -0.397332 10.844837
C 1.781136 1.259454 10.828557
Si 0.603695 2.899502 7.909649
C -0.550077 4.556288 7.893369
Si 0.603695 2.899502 10.782924
C -0.550077 4.556288 10.766644
Si 0.603695 2.899502 13.656200
C -0.550077 4.556288 13.639920
Si -1.727519 6.196336 10.721012
C -2.881291 7.853121 10.704732
Si -1.727519 6.196336 13.594288
C -2.881291 7.853121 13.578008
Si -1.727519 6.196336 16.467564
C -2.881291 7.853121 16.451283
Si 5.283995 -1.208902 6.596836
C 4.130223 0.447883 6.580556
Si 5.283995 -1.208902 9.470111
C 4.130223 0.447883 9.453831
Si 5.283995 -1.208902 12.343387
C 4.130223 0.447883 12.327107
Si 2.952781 2.087931 9.408199
C 1.799009 3.744717 9.391919
Si 2.952781 2.087931 12.281475
C 1.799009 3.744717 12.265195
Si 2.952781 2.087931 15.154751
C 1.799009 3.744717 15.138470
Si 0.621567 5.384765 12.219563
C -0.532205 7.041551 12.203282
Si 0.621567 5.384765 15.092838
C -0.532205 7.041551 15.076558
Si 0.621567 5.384765 17.966114
C -0.532205 7.041551 17.949834
