54
A
Si 0.585716 0.414164 3.588759
C -0.576780 2.070668 3.588759
Si 0.585716 0.414164 6.459766
C -0.576780 2.070668 6.459766
Si 0.585716 0.414164 9.330773
C -0.576780 2.070668 9.330773
Si -1.751048 3.718847 6.459766
C -2.913544 5.375352 6.459766
Si -1.751048 3.718847 9.330773
C -2.913544 5.375352 9.330773
Si -1.751048 3.718847 12.201780
C -2.913544 5.375352 12.201780
Si -4.087813 7.023531 9.330773
C -5.250308 8.680035 9.330773
Si -4.087813 7.023531 12.201780
C -5.250308 8.680035 12.201780
Si -4.087813 7.023531 15.072787
C -5.250308 8.680035 15.072787
Si 2.931417 -0.405688 5.024263
C 1.768921 1.250816 5.024263
Si 2.931417 -0.405688 7.895270
C 1.768921 1.250816 7.895270
Si 2.931417 -0.405688 10.766277
C 1.768921 1.250816 10.766277
Si 0.594652 2.898995 7.895270
C -0.567843 4.555500 7.895270
Si 0.594652 2.898995 10.766277
C -0.567843 4.555500 10.766277
Si 0.594652 2.898995 13.637284
C -0.567843 4.555500 13.637284
Si -1.742112 6.203679 10.766277
C -2.904608 7.860183 10.766277
Si -1.742112 6.203679 13.637284
C -2.904608 7.860183 13.637284
Si -1.742112 6.203679 16.508291
C -2.904608 7.860183 16.508291
Si 5.277117 -1.225540 6.459767
C 4.114622 0.430964 6.459767
Si 5.277117 -1.225540 9.330774
C 4.114622 0.430964 9.330774
Si 5.277117 -1.225540 12.201781
C 4.114622 0.430964 12.201781
Si 2.940353 2.079143 9.330774
C 1.777857 3.735648 9.330774
Si 2.940353 2.079143 12.201781
C 1.777857 3.735648 12.201781
Si 2.940353 2.079143 15.072788
C 1.777857 3.735648 15.072788
Si 0.603588 5.383827 12.201781
C -0.558907 7.040331 12.201781
Si 0.603588 5.383827 15.072788
C -0.558907 7.040331 15.072788
Si 0.603588 5.383827 17.943795
C -0.558907 7.040331 17.943795
