54
A
Si 0.499209 0.352994 3.812793
C 0.215691 2.165928 3.812793
Si 0.499209 0.352994 6.863027
C 0.215691 2.165928 6.863027
Si 0.499209 0.352994 9.913261
C 0.215691 2.165928 9.913261
Si -1.399054 3.037544 6.863027
C -1.682572 4.850478 6.863027
Si -1.399054 3.037544 9.913261
C -1.682572 4.850478 9.913261
Si -1.399054 3.037544 12.963495
C -1.682572 4.850478 12.963495
Si -3.297317 5.722093 9.913261
C -3.580835 7.535027 9.913261
Si -3.297317 5.722093 12.963495
C -3.580835 7.535027 12.963495
Si -3.297317 5.722093 16.013730
C -3.580835 7.535027 16.013729
Si 3.112373 0.187368 5.337909
C 2.828854 2.000302 5.337909
Si 3.112373 0.187368 8.388144
C 2.828854 2.000302 8.388144
Si 3.112373 0.187368 11.438378
C 2.828854 2.000302 11.438378
Si 1.214110 2.871917 8.388144
C 0.930591 4.684851 8.388144
Si 1.214110 2.871917 11.438378
C 0.930591 4.684851 11.438378
Si 1.214110 2.871917 14.488612
C 0.930591 4.684851 14.488612
Si -0.684153 5.556466 11.438378
C -0.967672 7.369400 11.438378
Si -0.684153 5.556466 14.488612
C -0.967672 7.369400 14.488612
Si -0.684153 5.556466 17.538846
C -0.967672 7.369400 17.538846
Si 5.725536 0.021741 6.863026
C 5.442017 1.834675 6.863026
Si 5.725536 0.021741 9.913260
C 5.442017 1.834675 9.913260
Si 5.725536 0.021741 12.963495
C 5.442017 1.834675 12.963494
Si 3.827273 2.706290 9.913261
C 3.543754 4.519224 9.913260
Si 3.827273 2.706290 12.963495
C 3.543754 4.519224 12.963495
Si 3.827273 2.706290 16.013729
C 3.543754 4.519224 16.013729
Si 1.929010 5.390840 12.963495
C 1.645491 7.203774 12.963495
Si 1.929010 5.390840 16.013729
C 1.645491 7.203774 16.013729
Si 1.929010 5.390840 19.063963
C 1.645491 7.203774 19.063963
