54
A
Si 0.506006 0.357800 3.804285
C 0.182085 2.159828 3.804285
Si 0.506006 0.357800 6.847713
C 0.182085 2.159828 6.847713
Si 0.506006 0.357800 9.891141
C 0.182085 2.159828 9.891141
Si -1.408909 3.065899 6.847713
C -1.732830 4.867926 6.847713
Si -1.408909 3.065899 9.891141
C -1.732830 4.867926 9.891141
Si -1.408909 3.065899 12.934569
C -1.732830 4.867926 12.934569
Si -3.323824 5.773998 9.891141
C -3.647745 7.576025 9.891141
Si -3.323824 5.773998 12.934569
C -3.647745 7.576025 12.934569
Si -3.323824 5.773998 15.977998
C -3.647745 7.576025 15.977997
Si 3.109013 0.167330 5.325999
C 2.785091 1.969357 5.325999
Si 3.109013 0.167330 8.369427
C 2.785091 1.969357 8.369427
Si 3.109013 0.167330 11.412855
C 2.785091 1.969357 11.412855
Si 1.194098 2.875428 8.369427
C 0.870177 4.677456 8.369427
Si 1.194098 2.875428 11.412855
C 0.870177 4.677456 11.412855
Si 1.194098 2.875428 14.456283
C 0.870177 4.677456 14.456283
Si -0.720817 5.583527 11.412855
C -1.044738 7.385555 11.412855
Si -0.720817 5.583527 14.456283
C -1.044738 7.385555 14.456283
Si -0.720817 5.583527 17.499711
C -1.044738 7.385555 17.499711
Si 5.712019 -0.023141 6.847713
C 5.388098 1.778886 6.847712
Si 5.712019 -0.023141 9.891141
C 5.388098 1.778886 9.891141
Si 5.712019 -0.023141 12.934569
C 5.388098 1.778886 12.934569
Si 3.797104 2.684958 9.891141
C 3.473183 4.486985 9.891141
Si 3.797104 2.684958 12.934569
C 3.473183 4.486985 12.934569
Si 3.797104 2.684958 15.977997
C 3.473183 4.486985 15.977997
Si 1.882189 5.393057 12.934569
C 1.558268 7.195084 12.934569
Si 1.882189 5.393057 15.977997
C 1.558268 7.195084 15.977997
Si 1.882189 5.393057 19.021425
C 1.558268 7.195084 19.021425
