54
A
Si 0.510383 0.360896 3.798613
C 0.159835 2.155869 3.798613
Si 0.510383 0.360896 6.837504
C 0.159835 2.155869 6.837504
Si 0.510383 0.360896 9.876395
C 0.159835 2.155869 9.876395
Si -1.415633 3.084694 6.837504
C -1.766181 4.879668 6.837504
Si -1.415633 3.084694 9.876395
C -1.766181 4.879668 9.876395
Si -1.415633 3.084694 12.915285
C -1.766181 4.879668 12.915285
Si -3.341649 5.808492 9.876395
C -3.692197 7.603466 9.876395
Si -3.341649 5.808492 12.915285
C -3.692197 7.603466 12.915285
Si -3.341649 5.808492 15.954176
C -3.692197 7.603466 15.954176
Si 3.106619 0.153862 5.318058
C 2.756071 1.948836 5.318058
Si 3.106619 0.153862 8.356949
C 2.756071 1.948836 8.356949
Si 3.106619 0.153862 11.395840
C 2.756071 1.948836 11.395840
Si 1.180602 2.877661 8.356949
C 0.830054 4.672635 8.356949
Si 1.180602 2.877661 11.395840
C 0.830054 4.672635 11.395840
Si 1.180602 2.877661 14.434731
C 0.830054 4.672635 14.434730
Si -0.745414 5.601459 11.395840
C -1.095962 7.396433 11.395840
Si -0.745414 5.601459 14.434731
C -1.095962 7.396433 14.434730
Si -0.745414 5.601459 17.473621
C -1.095962 7.396433 17.473621
Si 5.702854 -0.053171 6.837504
C 5.352306 1.741803 6.837503
Si 5.702854 -0.053171 9.876394
C 5.352306 1.741803 9.876394
Si 5.702854 -0.053171 12.915285
C 5.352306 1.741803 12.915285
Si 3.776837 2.670627 9.876394
C 3.426289 4.465601 9.876394
Si 3.776837 2.670627 12.915285
C 3.426289 4.465601 12.915285
Si 3.776837 2.670627 15.954176
C 3.426289 4.465601 15.954175
Si 1.850821 5.394426 12.915285
C 1.500273 7.189400 12.915285
Si 1.850821 5.394426 15.954176
C 1.500273 7.189400 15.954176
Si 1.850821 5.394426 18.993066
C 1.500273 7.189400 18.993066
