54
A
Si 0.581990 0.411529 3.645476
C -0.394329 2.081933 3.645476
Si 0.581990 0.411529 6.561857
C -0.394329 2.081933 6.561857
Si 0.581990 0.411529 9.478238
C -0.394329 2.081933 9.478238
Si -1.643761 3.559217 6.561857
C -2.620080 5.229621 6.561857
Si -1.643761 3.559217 9.478238
C -2.620080 5.229621 9.478238
Si -1.643761 3.559217 12.394619
C -2.620080 5.229621 12.394619
Si -3.869512 6.706905 9.478238
C -4.845832 8.377308 9.478238
Si -3.869512 6.706905 12.394619
C -4.845832 8.377308 12.394619
Si -3.869512 6.706905 15.311000
C -4.845832 8.377308 15.311000
Si 2.995403 -0.242696 5.103667
C 2.019084 1.427708 5.103667
Si 2.995403 -0.242696 8.020048
C 2.019084 1.427708 8.020048
Si 2.995403 -0.242696 10.936429
C 2.019084 1.427708 10.936429
Si 0.769652 2.904992 8.020048
C -0.206668 4.575395 8.020048
Si 0.769652 2.904992 10.936429
C -0.206668 4.575395 10.936429
Si 0.769652 2.904992 13.852810
C -0.206668 4.575395 13.852810
Si -1.456100 6.052679 10.936429
C -2.432419 7.723083 10.936429
Si -1.456100 6.052679 13.852810
C -2.432419 7.723083 13.852810
Si -1.456100 6.052679 16.769191
C -2.432419 7.723083 16.769191
Si 5.408816 -0.896921 6.561858
C 4.432496 0.773482 6.561858
Si 5.408816 -0.896921 9.478239
C 4.432496 0.773482 9.478239
Si 5.408816 -0.896921 12.394620
C 4.432496 0.773482 12.394620
Si 3.183064 2.250766 9.478239
C 2.206745 3.921170 9.478239
Si 3.183064 2.250766 12.394620
C 2.206745 3.921170 12.394620
Si 3.183064 2.250766 15.311001
C 2.206745 3.921170 15.311001
Si 0.957313 5.398454 12.394620
C -0.019006 7.068858 12.394620
Si 0.957313 5.398454 15.311001
C -0.019006 7.068858 15.311001
Si 0.957313 5.398454 18.227382
C -0.019006 7.068858 18.227382
