54
A
Si 0.534059 0.377637 3.764583
C 0.028925 2.133950 3.764583
Si 0.534059 0.377637 6.776249
C 0.028925 2.133950 6.776249
Si 0.534059 0.377637 9.787915
C 0.028925 2.133950 9.787915
Si -1.458565 3.195633 6.776249
C -1.963699 4.951946 6.776249
Si -1.458565 3.195633 9.787916
C -1.963699 4.951946 9.787915
Si -1.458565 3.195633 12.799582
C -1.963699 4.951946 12.799582
Si -3.451189 6.013629 9.787916
C -3.956323 7.769942 9.787915
Si -3.451189 6.013629 12.799582
C -3.956323 7.769942 12.799582
Si -3.451189 6.013629 15.811248
C -3.956323 7.769942 15.811248
Si 3.089667 0.071227 5.270416
C 2.584533 1.827541 5.270416
Si 3.089667 0.071227 8.282082
C 2.584533 1.827541 8.282082
Si 3.089667 0.071227 11.293748
C 2.584533 1.827541 11.293748
Si 1.097043 2.889223 8.282082
C 0.591909 4.645537 8.282082
Si 1.097043 2.889223 11.293749
C 0.591909 4.645537 11.293748
Si 1.097043 2.889223 14.305415
C 0.591909 4.645537 14.305415
Si -0.895581 5.707219 11.293749
C -1.400715 7.463533 11.293748
Si -0.895581 5.707219 14.305415
C -1.400715 7.463533 14.305415
Si -0.895581 5.707219 17.317081
C -1.400715 7.463533 17.317081
Si 5.645275 -0.235182 6.776249
C 5.140141 1.521131 6.776249
Si 5.645275 -0.235182 9.787915
C 5.140141 1.521131 9.787915
Si 5.645275 -0.235182 12.799581
C 5.140141 1.521131 12.799581
Si 3.652651 2.582814 9.787915
C 3.147517 4.339127 9.787915
Si 3.652651 2.582814 12.799582
C 3.147517 4.339127 12.799581
Si 3.652651 2.582814 15.811248
C 3.147517 4.339127 15.811248
Si 1.660027 5.400810 12.799582
C 1.154893 7.157123 12.799581
Si 1.660027 5.400810 15.811248
C 1.154893 7.157123 15.811248
Si 1.660027 5.400810 18.822914
C 1.154893 7.157123 18.822914
