54
A
Si 0.574689 0.406366 3.767042
C -0.288729 2.091843 3.586299
Si 0.574689 0.406366 6.708379
C -0.288729 2.091843 6.527636
Si 0.574689 0.406366 9.649716
C -0.288729 2.091843 9.468973
Si -1.590005 3.467706 5.717784
C -2.453423 5.153183 5.537041
Si -1.590005 3.467706 8.659121
C -2.453423 5.153183 8.478378
Si -1.590005 3.467706 11.600458
C -2.453423 5.153183 11.419715
Si -3.754699 6.529046 7.668526
C -4.618117 8.214522 7.487784
Si -3.754699 6.529046 10.609863
C -4.618117 8.214522 10.429120
Si -3.754699 6.529046 13.551200
C -4.618117 8.214522 13.370457
Si 3.025343 -0.156764 6.228305
C 2.161925 1.528712 6.047563
Si 3.025343 -0.156764 9.169642
C 2.161925 1.528712 8.988899
Si 3.025343 -0.156764 12.110979
C 2.161925 1.528712 11.930236
Si 0.860649 2.904576 8.179047
C -0.002769 4.590052 7.998305
Si 0.860649 2.904576 11.120384
C -0.002769 4.590052 10.939641
Si 0.860649 2.904576 14.061721
C -0.002769 4.590052 13.880978
Si -1.304045 5.965915 10.129789
C -2.167463 7.651392 9.949047
Si -1.304045 5.965915 13.071126
C -2.167463 7.651392 12.890383
Si -1.304045 5.965915 16.012463
C -2.167463 7.651392 15.831720
Si 5.475998 -0.719895 8.689568
C 4.612580 0.965581 8.508826
Si 5.475998 -0.719895 11.630905
C 4.612580 0.965581 11.450162
Si 5.475998 -0.719895 14.572242
C 4.612580 0.965581 14.391499
Si 3.311303 2.341445 10.640310
C 2.447885 4.026921 10.459568
Si 3.311303 2.341445 13.581647
C 2.447885 4.026921 13.400904
Si 3.311303 2.341445 16.522984
C 2.447885 4.026921 16.342241
Si 1.146609 5.402785 12.591052
C 0.283191 7.088261 12.410310
Si 1.146609 5.402785 15.532389
C 0.283191 7.088261 15.351646
Si 1.146609 5.402785 18.473726
C 0.283191 7.088261 18.292983
