54
A
Si 0.569135 0.402440 3.791533
C -0.229558 2.098359 3.595839
Si 0.569135 0.402440 6.746482
C -0.229558 2.098359 6.550788
Si 0.569135 0.402440 9.701431
C -0.229558 2.098359 9.505737
Si -1.562255 3.416681 5.570151
C -2.360948 5.112600 5.374457
Si -1.562255 3.416681 8.525100
C -2.360948 5.112600 8.329406
Si -1.562255 3.416681 11.480049
C -2.360948 5.112600 11.284355
Si -3.693645 6.430922 7.348769
C -4.492339 8.126841 7.153075
Si -3.693645 6.430922 10.303717
C -4.492339 8.126841 10.108023
Si -3.693645 6.430922 13.258666
C -4.492339 8.126841 13.062972
Si 3.040103 -0.111003 6.445339
C 2.241410 1.584916 6.249645
Si 3.040103 -0.111003 9.400288
C 2.241410 1.584916 9.204594
Si 3.040103 -0.111003 12.355236
C 2.241410 1.584916 12.159542
Si 0.908713 2.903238 8.223956
C 0.110020 4.599157 8.028262
Si 0.908713 2.903238 11.178905
C 0.110020 4.599157 10.983211
Si 0.908713 2.903238 14.133854
C 0.110020 4.599157 13.938160
Si -1.222677 5.917479 10.002574
C -2.021371 7.613398 9.806880
Si -1.222677 5.917479 12.957523
C -2.021371 7.613398 12.761829
Si -1.222677 5.917479 15.912472
C -2.021371 7.613398 15.716778
Si 5.511071 -0.624446 9.099144
C 4.712378 1.071474 8.903450
Si 5.511071 -0.624446 12.054093
C 4.712378 1.071474 11.858399
Si 5.511071 -0.624446 15.009042
C 4.712378 1.071474 14.813348
Si 3.379681 2.389795 10.877762
C 2.580988 4.085715 10.682068
Si 3.379681 2.389795 13.832711
C 2.580988 4.085715 13.637017
Si 3.379681 2.389795 16.787660
C 2.580988 4.085715 16.591966
Si 1.248291 5.404036 12.656380
C 0.449597 7.099956 12.460686
Si 1.248291 5.404036 15.611329
C 0.449597 7.099956 15.415635
Si 1.248291 5.404036 18.566277
C 0.449597 7.099956 18.370583
