54
A
Si 0.489716 0.346281 3.824136
C 0.260929 2.174367 3.824136
Si 0.489716 0.346281 6.883445
C 0.260929 2.174367 6.883445
Si 0.489716 0.346281 9.942754
C 0.260929 2.174367 9.942754
Si -1.386345 2.999431 6.883445
C -1.615131 4.827518 6.883445
Si -1.386345 2.999431 9.942754
C -1.615131 4.827518 9.942754
Si -1.386345 2.999431 13.002063
C -1.615131 4.827518 13.002063
Si -3.262405 5.652582 9.942754
C -3.491192 7.480668 9.942754
Si -3.262405 5.652582 13.002063
C -3.491192 7.480668 13.002063
Si -3.262405 5.652582 16.061372
C -3.491192 7.480668 16.061372
Si 3.116421 0.213780 5.353790
C 2.887635 2.041866 5.353790
Si 3.116421 0.213780 8.413099
C 2.887635 2.041866 8.413099
Si 3.116421 0.213780 11.472408
C 2.887635 2.041866 11.472408
Si 1.240361 2.866930 8.413099
C 1.011574 4.695016 8.413099
Si 1.240361 2.866930 11.472408
C 1.011574 4.695016 11.472408
Si 1.240361 2.866930 14.531717
C 1.011574 4.695016 14.531717
Si -0.635699 5.520080 11.472408
C -0.864486 7.348166 11.472408
Si -0.635699 5.520080 14.531717
C -0.864486 7.348166 14.531717
Si -0.635699 5.520080 17.591026
C -0.864486 7.348166 17.591026
Si 5.743127 0.081279 6.883444
C 5.514340 1.909365 6.883444
Si 5.743127 0.081279 9.942753
C 5.514340 1.909365 9.942753
Si 5.743127 0.081279 13.002062
C 5.514340 1.909365 13.002062
Si 3.867067 2.734429 9.942754
C 3.638280 4.562515 9.942753
Si 3.867067 2.734429 13.002062
C 3.638280 4.562515 13.002062
Si 3.867067 2.734429 16.061371
C 3.638280 4.562515 16.061371
Si 1.991006 5.387579 13.002063
C 1.762220 7.215665 13.002062
Si 1.991006 5.387579 16.061372
C 1.762220 7.215665 16.061371
Si 1.991006 5.387579 19.120681
C 1.762220 7.215665 19.120680
