54
A
Si 0.578470 0.409040 3.662492
C -0.337191 2.087012 3.662492
Si 0.578470 0.409040 6.592485
C -0.337191 2.087012 6.592485
Si 0.578470 0.409040 9.522478
C -0.337191 2.087012 9.522478
Si -1.613978 3.509629 6.592485
C -2.529639 5.187600 6.592485
Si -1.613978 3.509629 9.522478
C -2.529639 5.187600 9.522478
Si -1.613978 3.509629 12.452471
C -2.529639 5.187600 12.452471
Si -3.806425 6.610218 9.522478
C -4.722086 8.288189 9.522478
Si -3.806425 6.610218 12.452471
C -4.722086 8.288189 12.452471
Si -3.806425 6.610218 15.382464
C -4.722086 8.288189 15.382464
Si 3.012196 -0.195497 5.127488
C 2.096535 1.482474 5.127488
Si 3.012196 -0.195497 8.057481
C 2.096535 1.482474 8.057481
Si 3.012196 -0.195497 10.987475
C 2.096535 1.482474 10.987475
Si 0.819749 2.905091 8.057481
C -0.095912 4.583063 8.057481
Si 0.819749 2.905091 10.987475
C -0.095912 4.583063 10.987475
Si 0.819749 2.905091 13.917468
C -0.095912 4.583063 13.917468
Si -1.372699 6.005680 10.987475
C -2.288360 7.683652 10.987475
Si -1.372699 6.005680 13.917468
C -2.288360 7.683652 13.917468
Si -1.372699 6.005680 16.847461
C -2.288360 7.683652 16.847461
Si 5.445922 -0.800035 6.592485
C 4.530262 0.877937 6.592485
Si 5.445922 -0.800035 9.522478
C 4.530262 0.877937 9.522478
Si 5.445922 -0.800035 12.452471
C 4.530262 0.877937 12.452471
Si 3.253475 2.300554 9.522478
C 2.337814 3.978526 9.522478
Si 3.253475 2.300554 12.452471
C 2.337814 3.978526 12.452471
Si 3.253475 2.300554 15.382465
C 2.337814 3.978526 15.382464
Si 1.061027 5.401143 12.452471
C 0.145367 7.079115 12.452471
Si 1.061027 5.401143 15.382464
C 0.145367 7.079115 15.382464
Si 1.061027 5.401143 18.312458
C 0.145367 7.079115 18.312458
