54
A
Si 0.585940 0.414322 3.626362
C -0.532322 2.072667 3.579515
Si 0.585940 0.414322 6.508712
C -0.532322 2.072667 6.461865
Si 0.585940 0.414322 9.391063
C -0.532322 2.072667 9.344216
Si -1.723071 3.679757 6.322976
C -2.841333 5.338102 6.276129
Si -1.723071 3.679757 9.205326
C -2.841333 5.338102 9.158479
Si -1.723071 3.679757 12.087677
C -2.841333 5.338102 12.040830
Si -4.032083 6.945191 9.019590
C -5.150344 8.603537 8.972743
Si -4.032083 6.945191 11.901940
C -5.150344 8.603537 11.855093
Si -4.032083 6.945191 14.784291
C -5.150344 8.603537 14.737444
Si 2.948568 -0.364123 5.253274
C 1.830306 1.294222 5.206427
Si 2.948568 -0.364123 8.135624
C 1.830306 1.294222 8.088777
Si 2.948568 -0.364123 11.017975
C 1.830306 1.294222 10.971128
Si 0.639557 2.901311 7.949888
C -0.478705 4.559657 7.903041
Si 0.639557 2.901311 10.832238
C -0.478705 4.559657 10.785391
Si 0.639557 2.901311 13.714589
C -0.478705 4.559657 13.667742
Si -1.669454 6.166746 10.646502
C -2.787716 7.825091 10.599655
Si -1.669454 6.166746 13.528852
C -2.787716 7.825091 13.482005
Si -1.669454 6.166746 16.411203
C -2.787716 7.825091 16.364356
Si 5.311197 -1.142569 6.880186
C 4.192935 0.515777 6.833339
Si 5.311197 -1.142569 9.762536
C 4.192935 0.515777 9.715689
Si 5.311197 -1.142569 12.644887
C 4.192935 0.515777 12.598040
Si 3.002186 2.122866 9.576800
C 1.883924 3.781211 9.529953
Si 3.002186 2.122866 12.459150
C 1.883924 3.781211 12.412303
Si 3.002186 2.122866 15.341501
C 1.883924 3.781211 15.294654
Si 0.693175 5.388301 12.273414
C -0.425087 7.046646 12.226567
Si 0.693175 5.388301 15.155764
C -0.425087 7.046646 15.108917
Si 0.693175 5.388301 18.038115
C -0.425087 7.046646 17.991268
