54
A
Si 0.520787 0.368252 3.784434
C 0.104750 2.146355 3.784434
Si 0.520787 0.368252 6.811981
C 0.104750 2.146355 6.811981
Si 0.520787 0.368252 9.839528
C 0.104750 2.146355 9.839528
Si -1.432982 3.131300 6.811981
C -1.849019 4.909403 6.811981
Si -1.432982 3.131300 9.839528
C -1.849019 4.909403 9.839528
Si -1.432982 3.131300 12.867076
C -1.849019 4.909403 12.867075
Si -3.386752 5.894347 9.839528
C -3.802789 7.672450 9.839528
Si -3.386752 5.894347 12.867076
C -3.802789 7.672450 12.867076
Si -3.386752 5.894347 15.894623
C -3.802789 7.672450 15.894623
Si 3.100094 0.119812 5.298207
C 2.684058 1.897915 5.298207
Si 3.100094 0.119812 8.325755
C 2.684058 1.897915 8.325754
Si 3.100094 0.119812 11.353302
C 2.684058 1.897915 11.353302
Si 1.146325 2.882860 8.325755
C 0.730288 4.660963 8.325754
Si 1.146325 2.882860 11.353302
C 0.730288 4.660963 11.353302
Si 1.146325 2.882860 14.380849
C 0.730288 4.660963 14.380849
Si -0.807445 5.645907 11.353302
C -1.223482 7.424010 11.353302
Si -0.807445 5.645907 14.380849
C -1.223482 7.424010 14.380849
Si -0.807445 5.645907 17.408396
C -1.223482 7.424010 17.408396
Si 5.679402 -0.128628 6.811981
C 5.263365 1.649475 6.811981
Si 5.679402 -0.128628 9.839528
C 5.263365 1.649475 9.839528
Si 5.679402 -0.128628 12.867075
C 5.263365 1.649475 12.867075
Si 3.725632 2.634420 9.839528
C 3.309595 4.412523 9.839528
Si 3.725632 2.634420 12.867075
C 3.309595 4.412523 12.867075
Si 3.725632 2.634420 15.894622
C 3.309595 4.412523 15.894622
Si 1.771863 5.397467 12.867075
C 1.355826 7.175570 12.867075
Si 1.771863 5.397467 15.894622
C 1.355826 7.175570 15.894622
Si 1.771863 5.397467 18.922170
C 1.355826 7.175570 18.922170
