54
A
Si 0.482272 0.341018 3.832644
C 0.295182 2.180926 3.832644
Si 0.482272 0.341018 6.898759
C 0.295182 2.180926 6.898759
Si 0.482272 0.341018 9.964874
C 0.295182 2.180926 9.964874
Si -1.377136 2.970619 6.898759
C -1.564227 4.810526 6.898759
Si -1.377136 2.970619 9.964874
C -1.564227 4.810526 9.964874
Si -1.377136 2.970619 13.030989
C -1.564227 4.810526 13.030989
Si -3.236545 5.600219 9.964874
C -3.423635 7.440127 9.964874
Si -3.236545 5.600219 13.030989
C -3.423635 7.440127 13.030989
Si -3.236545 5.600219 16.097104
C -3.423635 7.440127 16.097104
Si 3.119135 0.233361 5.365701
C 2.932044 2.073268 5.365701
Si 3.119135 0.233361 8.431816
C 2.932044 2.073268 8.431816
Si 3.119135 0.233361 11.497931
C 2.932044 2.073268 11.497931
Si 1.259726 2.862961 8.431816
C 1.072636 4.702869 8.431816
Si 1.259726 2.862961 11.497931
C 1.072636 4.702869 11.497931
Si 1.259726 2.862961 14.564046
C 1.072636 4.702869 14.564046
Si -0.599682 5.492562 11.497931
C -0.786773 7.332470 11.497931
Si -0.599682 5.492562 14.564046
C -0.786773 7.332470 14.564046
Si -0.599682 5.492562 17.630161
C -0.786773 7.332470 17.630161
Si 5.755997 0.125703 6.898758
C 5.568907 1.965611 6.898758
Si 5.755997 0.125703 9.964873
C 5.568907 1.965611 9.964873
Si 5.755997 0.125703 13.030988
C 5.568907 1.965611 13.030988
Si 3.896588 2.755304 9.964873
C 3.709498 4.595212 9.964873
Si 3.896588 2.755304 13.030988
C 3.709498 4.595212 13.030988
Si 3.896588 2.755304 16.097103
C 3.709498 4.595212 16.097103
Si 2.037180 5.384905 13.030988
C 1.850090 7.224812 13.030988
Si 2.037180 5.384905 16.097103
C 1.850090 7.224812 16.097103
Si 2.037180 5.384905 19.163219
C 1.850090 7.224812 19.163218
