54
A
Si 0.532255 0.376361 3.863106
C 0.039665 2.135657 3.671731
Si 0.532255 0.376361 6.877041
C 0.039665 2.135657 6.685666
Si 0.532255 0.376361 9.890976
C 0.039665 2.135657 9.699601
Si -1.454818 3.186507 4.895852
C -1.947409 4.945803 4.704477
Si -1.454818 3.186507 7.909787
C -1.947409 4.945803 7.718412
Si -1.454818 3.186507 10.923722
C -1.947409 4.945803 10.732347
Si -3.441892 5.996654 5.928598
C -3.934482 7.755949 5.737223
Si -3.441892 5.996654 8.942533
C -3.934482 7.755949 8.751158
Si -3.441892 5.996654 11.956468
C -3.934482 7.755949 11.765093
Si 3.091249 0.078233 7.351263
C 2.598658 1.837529 7.159888
Si 3.091249 0.078233 10.365198
C 2.598658 1.837529 10.173823
Si 3.091249 0.078233 13.379133
C 2.598658 1.837529 13.187758
Si 1.104175 2.888379 8.384008
C 0.611585 4.647675 8.192634
Si 1.104175 2.888379 11.397943
C 0.611585 4.647675 11.206569
Si 1.104175 2.888379 14.411878
C 0.611585 4.647675 14.220504
Si -0.882898 5.698526 9.416754
C -1.375489 7.457821 9.225380
Si -0.882898 5.698526 12.430689
C -1.375489 7.457821 12.239315
Si -0.882898 5.698526 15.444624
C -1.375489 7.457821 15.253250
Si 5.650242 -0.219895 10.839419
C 5.157652 1.539401 10.648044
Si 5.650242 -0.219895 13.853354
C 5.157652 1.539401 13.661979
Si 5.650242 -0.219895 16.867289
C 5.157652 1.539401 16.675914
Si 3.663169 2.590251 11.872165
C 3.170578 4.349547 11.680790
Si 3.663169 2.590251 14.886100
C 3.170578 4.349547 14.694725
Si 3.663169 2.590251 17.900035
C 3.170578 4.349547 17.708660
Si 1.676096 5.400398 12.904911
C 1.183505 7.159693 12.713536
Si 1.676096 5.400398 15.918846
C 1.183505 7.159693 15.727471
Si 1.676096 5.400398 18.932781
C 1.183505 7.159693 18.741406
