27
A
Fe 0.000000 0.000000 0.000000
Fe 0.000000 0.000000 0.811993
Fe 0.000000 0.000000 1.623986
Fe 0.338846 0.662990 -0.501259
Fe 0.338846 0.662990 0.310734
Fe 0.338846 0.662990 1.122727
Fe 0.677692 1.325979 -1.002519
Fe 0.677692 1.325979 -0.190526
Fe 0.677692 1.325979 0.621467
Fe 0.747094 0.000000 0.501259
Fe 0.747094 0.000000 1.313252
Fe 0.747094 0.000000 2.125245
Fe 1.085940 0.662990 0.000000
Fe 1.085940 0.662990 0.811993
Fe 1.085940 0.662990 1.623986
Fe 1.424787 1.325979 -0.501259
Fe 1.424787 1.325979 0.310734
Fe 1.424787 1.325979 1.122727
Fe 1.494189 0.000000 1.002519
Fe 1.494189 0.000000 1.814512
Fe 1.494189 0.000000 2.626505
Fe 1.833035 0.662990 0.501259
Fe 1.833035 0.662990 1.313252
Fe 1.833035 0.662990 2.125245
Fe 2.171881 1.325979 0.000000
Fe 2.171881 1.325979 0.811993
Fe 2.171881 1.325979 1.623986
