27
A
Fe 0.000000 0.000000 0.000000
Fe 0.000000 0.000000 0.726177
Fe 0.000000 0.000000 1.452354
Fe 0.228619 0.592921 -0.380409
Fe 0.228619 0.592921 0.345768
Fe 0.228619 0.592921 1.071945
Fe 0.457238 1.185842 -0.760818
Fe 0.457238 1.185842 -0.034641
Fe 0.457238 1.185842 0.691536
Fe 0.636867 0.000000 0.380409
Fe 0.636867 0.000000 1.106586
Fe 0.636867 0.000000 1.832763
Fe 0.865486 0.592921 0.000000
Fe 0.865486 0.592921 0.726177
Fe 0.865486 0.592921 1.452354
Fe 1.094105 1.185842 -0.380409
Fe 1.094105 1.185842 0.345768
Fe 1.094105 1.185842 1.071945
Fe 1.273735 0.000000 0.760818
Fe 1.273735 0.000000 1.486995
Fe 1.273735 0.000000 2.213172
Fe 1.502354 0.592921 0.380409
Fe 1.502354 0.592921 1.106586
Fe 1.502354 0.592921 1.832763
Fe 1.730973 1.185842 0.000000
Fe 1.730973 1.185842 0.726177
Fe 1.730973 1.185842 1.452354
