27
A
Fe 0.000000 0.000000 0.000000
Fe 0.000000 0.000000 0.743658
Fe 0.000000 0.000000 1.487316
Fe 0.251073 0.607194 -0.405027
Fe 0.251073 0.607194 0.338631
Fe 0.251073 0.607194 1.082289
Fe 0.502145 1.214389 -0.810053
Fe 0.502145 1.214389 -0.066395
Fe 0.502145 1.214389 0.677263
Fe 0.659321 0.000000 0.405027
Fe 0.659321 0.000000 1.148685
Fe 0.659321 0.000000 1.892343
Fe 0.910394 0.607194 0.000000
Fe 0.910394 0.607194 0.743658
Fe 0.910394 0.607194 1.487316
Fe 1.161466 1.214389 -0.405027
Fe 1.161466 1.214389 0.338631
Fe 1.161466 1.214389 1.082289
Fe 1.318642 0.000000 0.810053
Fe 1.318642 0.000000 1.553711
Fe 1.318642 0.000000 2.297369
Fe 1.569715 0.607194 0.405027
Fe 1.569715 0.607194 1.148685
Fe 1.569715 0.607194 1.892343
Fe 1.820787 1.214389 0.000000
Fe 1.820787 1.214389 0.743658
Fe 1.820787 1.214389 1.487316
