27
A
Fe 0.000000 0.000000 0.000000
Fe 0.000000 0.000000 0.823117
Fe 0.000000 0.000000 1.646235
Fe 0.353135 0.672073 -0.516925
Fe 0.353135 0.672073 0.306192
Fe 0.353135 0.672073 1.129310
Fe 0.706270 1.344145 -1.033850
Fe 0.706270 1.344145 -0.210733
Fe 0.706270 1.344145 0.612385
Fe 0.761383 0.000000 0.516925
Fe 0.761383 0.000000 1.340042
Fe 0.761383 0.000000 2.163160
Fe 1.114518 0.672073 0.000000
Fe 1.114518 0.672073 0.823117
Fe 1.114518 0.672073 1.646235
Fe 1.467653 1.344145 -0.516925
Fe 1.467653 1.344145 0.306192
Fe 1.467653 1.344145 1.129310
Fe 1.522766 0.000000 1.033850
Fe 1.522766 0.000000 1.856968
Fe 1.522766 0.000000 2.680085
Fe 1.875901 0.672073 0.516925
Fe 1.875901 0.672073 1.340042
Fe 1.875901 0.672073 2.163160
Fe 2.229036 1.344145 0.000000
Fe 2.229036 1.344145 0.823117
Fe 2.229036 1.344145 1.646235
