27
A
Fe 0.000000 0.000000 0.000000
Fe 0.000000 0.000000 0.719820
Fe 0.000000 0.000000 1.439641
Fe 0.220454 0.587731 -0.371457
Fe 0.220454 0.587731 0.348363
Fe 0.220454 0.587731 1.068183
Fe 0.440908 1.175462 -0.742914
Fe 0.440908 1.175462 -0.023094
Fe 0.440908 1.175462 0.696726
Fe 0.628702 0.000000 0.371457
Fe 0.628702 0.000000 1.091277
Fe 0.628702 0.000000 1.811098
Fe 0.849156 0.587731 -0.000000
Fe 0.849156 0.587731 0.719820
Fe 0.849156 0.587731 1.439641
Fe 1.069611 1.175462 -0.371457
Fe 1.069611 1.175462 0.348363
Fe 1.069611 1.175462 1.068183
Fe 1.257405 0.000000 0.742914
Fe 1.257405 0.000000 1.462735
Fe 1.257405 0.000000 2.182555
Fe 1.477859 0.587731 0.371457
Fe 1.477859 0.587731 1.091277
Fe 1.477859 0.587731 1.811098
Fe 1.698313 1.175462 -0.000000
Fe 1.698313 1.175462 0.719820
Fe 1.698313 1.175462 1.439641
