27
A
Fe 0.000000 0.000000 0.000000
Fe 0.000000 0.000000 0.835831
Fe 0.000000 0.000000 1.671662
Fe 0.369465 0.682453 -0.534829
Fe 0.369465 0.682453 0.301002
Fe 0.369465 0.682453 1.136833
Fe 0.738929 1.364906 -1.069658
Fe 0.738929 1.364906 -0.233827
Fe 0.738929 1.364906 0.602004
Fe 0.777713 0.000000 0.534829
Fe 0.777713 0.000000 1.370660
Fe 0.777713 0.000000 2.206491
Fe 1.147178 0.682453 0.000000
Fe 1.147178 0.682453 0.835831
Fe 1.147178 0.682453 1.671662
Fe 1.516642 1.364906 -0.534829
Fe 1.516642 1.364906 0.301002
Fe 1.516642 1.364906 1.136833
Fe 1.555426 0.000000 1.069658
Fe 1.555426 0.000000 1.905489
Fe 1.555426 0.000000 2.741319
Fe 1.924891 0.682453 0.534829
Fe 1.924891 0.682453 1.370660
Fe 1.924891 0.682453 2.206491
Fe 2.294355 1.364906 0.000000
Fe 2.294355 1.364906 0.835831
Fe 2.294355 1.364906 1.671662
