27
A
Fe 0.000000 0.000000 0.000000
Fe 0.000000 0.000000 0.707107
Fe 0.000000 0.000000 1.414214
Fe 0.204124 0.577350 -0.353553
Fe 0.204124 0.577350 0.353553
Fe 0.204124 0.577350 1.060660
Fe 0.408248 1.154701 -0.707107
Fe 0.408248 1.154701 0.000000
Fe 0.408248 1.154701 0.707107
Fe 0.612372 0.000000 0.353553
Fe 0.612372 0.000000 1.060660
Fe 0.612372 0.000000 1.767767
Fe 0.816497 0.577350 -0.000000
Fe 0.816497 0.577350 0.707107
Fe 0.816497 0.577350 1.414214
Fe 1.020621 1.154701 -0.353553
Fe 1.020621 1.154701 0.353553
Fe 1.020621 1.154701 1.060660
Fe 1.224745 0.000000 0.707107
Fe 1.224745 0.000000 1.414214
Fe 1.224745 0.000000 2.121320
Fe 1.428869 0.577350 0.353553
Fe 1.428869 0.577350 1.060660
Fe 1.428869 0.577350 1.767767
Fe 1.632993 1.154701 -0.000000
Fe 1.632993 1.154701 0.707107
Fe 1.632993 1.154701 1.414214
