27
A
Fe 0.000000 0.000000 0.000000
Fe 0.000000 0.000000 0.735712
Fe 0.000000 0.000000 1.471424
Fe 0.240866 0.600706 -0.393837
Fe 0.240866 0.600706 0.341875
Fe 0.240866 0.600706 1.077587
Fe 0.481733 1.201413 -0.787674
Fe 0.481733 1.201413 -0.051962
Fe 0.481733 1.201413 0.683751
Fe 0.649115 0.000000 0.393837
Fe 0.649115 0.000000 1.129549
Fe 0.649115 0.000000 1.865261
Fe 0.889981 0.600706 -0.000000
Fe 0.889981 0.600706 0.735712
Fe 0.889981 0.600706 1.471424
Fe 1.130848 1.201413 -0.393837
Fe 1.130848 1.201413 0.341875
Fe 1.130848 1.201413 1.077587
Fe 1.298230 0.000000 0.787674
Fe 1.298230 0.000000 1.523386
Fe 1.298230 0.000000 2.259098
Fe 1.539096 0.600706 0.393837
Fe 1.539096 0.600706 1.129549
Fe 1.539096 0.600706 1.865261
Fe 1.779963 1.201413 -0.000000
Fe 1.779963 1.201413 0.735712
Fe 1.779963 1.201413 1.471424
