27
A
Fe 0.000000 0.000000 0.000000
Fe 0.000000 0.000000 0.854901
Fe 0.000000 0.000000 1.709802
Fe 0.393960 0.698024 -0.561684
Fe 0.393960 0.698024 0.293217
Fe 0.393960 0.698024 1.148118
Fe 0.787919 1.396048 -1.123369
Fe 0.787919 1.396048 -0.268468
Fe 0.787919 1.396048 0.586433
Fe 0.802208 0.000000 0.561684
Fe 0.802208 0.000000 1.416586
Fe 0.802208 0.000000 2.271487
Fe 1.196167 0.698024 0.000000
Fe 1.196167 0.698024 0.854901
Fe 1.196167 0.698024 1.709802
Fe 1.590127 1.396048 -0.561684
Fe 1.590127 1.396048 0.293217
Fe 1.590127 1.396048 1.148118
Fe 1.604416 0.000000 1.123369
Fe 1.604416 0.000000 1.978270
Fe 1.604416 0.000000 2.833171
Fe 1.998375 0.698024 0.561684
Fe 1.998375 0.698024 1.416586
Fe 1.998375 0.698024 2.271487
Fe 2.392335 1.396048 0.000000
Fe 2.392335 1.396048 0.854901
Fe 2.392335 1.396048 1.709802
