27
A
Fe 0.000000 0.000000 0.000000
Fe 0.000000 0.000000 0.810404
Fe 0.000000 0.000000 1.620808
Fe 0.336805 0.661692 -0.499021
Fe 0.336805 0.661692 0.311383
Fe 0.336805 0.661692 1.121786
Fe 0.673610 1.323384 -0.998043
Fe 0.673610 1.323384 -0.187639
Fe 0.673610 1.323384 0.622765
Fe 0.745053 0.000000 0.499021
Fe 0.745053 0.000000 1.309425
Fe 0.745053 0.000000 2.119829
Fe 1.081858 0.661692 0.000000
Fe 1.081858 0.661692 0.810404
Fe 1.081858 0.661692 1.620808
Fe 1.418663 1.323384 -0.499021
Fe 1.418663 1.323384 0.311383
Fe 1.418663 1.323384 1.121786
Fe 1.490106 0.000000 0.998043
Fe 1.490106 0.000000 1.808447
Fe 1.490106 0.000000 2.618850
Fe 1.826911 0.661692 0.499021
Fe 1.826911 0.661692 1.309425
Fe 1.826911 0.661692 2.119829
Fe 2.163716 1.323384 0.000000
Fe 2.163716 1.323384 0.810404
Fe 2.163716 1.323384 1.620808
