27
A
Fe 0.000000 0.000000 0.000000
Fe 0.000000 0.000000 0.846955
Fe 0.000000 0.000000 1.693910
Fe 0.383753 0.691536 -0.550495
Fe 0.383753 0.691536 0.296461
Fe 0.383753 0.691536 1.143416
Fe 0.767507 1.383072 -1.100989
Fe 0.767507 1.383072 -0.254034
Fe 0.767507 1.383072 0.592921
Fe 0.792002 0.000000 0.550495
Fe 0.792002 0.000000 1.397450
Fe 0.792002 0.000000 2.244405
Fe 1.175755 0.691536 0.000000
Fe 1.175755 0.691536 0.846955
Fe 1.175755 0.691536 1.693910
Fe 1.559508 1.383072 -0.550495
Fe 1.559508 1.383072 0.296461
Fe 1.559508 1.383072 1.143416
Fe 1.584003 0.000000 1.100989
Fe 1.584003 0.000000 1.947944
Fe 1.584003 0.000000 2.794900
Fe 1.967757 0.691536 0.550495
Fe 1.967757 0.691536 1.397450
Fe 1.967757 0.691536 2.244405
Fe 2.351510 1.383072 0.000000
Fe 2.351510 1.383072 0.846955
Fe 2.351510 1.383072 1.693910
