27
A
Fe 0.000000 0.000000 0.000000
Fe 0.000000 0.000000 0.818350
Fe 0.000000 0.000000 1.636700
Fe 0.347011 0.668180 -0.510211
Fe 0.347011 0.668180 0.308139
Fe 0.347011 0.668180 1.126488
Fe 0.694022 1.336360 -1.020422
Fe 0.694022 1.336360 -0.202073
Fe 0.694022 1.336360 0.616277
Fe 0.755259 0.000000 0.510211
Fe 0.755259 0.000000 1.328561
Fe 0.755259 0.000000 2.146911
Fe 1.102270 0.668180 0.000000
Fe 1.102270 0.668180 0.818350
Fe 1.102270 0.668180 1.636700
Fe 1.449281 1.336360 -0.510211
Fe 1.449281 1.336360 0.308139
Fe 1.449281 1.336360 1.126488
Fe 1.510519 0.000000 1.020422
Fe 1.510519 0.000000 1.838772
Fe 1.510519 0.000000 2.657122
Fe 1.857530 0.668180 0.510211
Fe 1.857530 0.668180 1.328561
Fe 1.857530 0.668180 2.146911
Fe 2.204541 1.336360 0.000000
Fe 2.204541 1.336360 0.818350
Fe 2.204541 1.336360 1.636700
