27
A
Fe 0.000000 0.000000 0.000000
Fe 0.000000 0.000000 0.834242
Fe 0.000000 0.000000 1.668483
Fe 0.367423 0.681155 -0.532591
Fe 0.367423 0.681155 0.301651
Fe 0.367423 0.681155 1.135892
Fe 0.734847 1.362311 -1.065182
Fe 0.734847 1.362311 -0.230940
Fe 0.734847 1.362311 0.603302
Fe 0.775672 0.000000 0.532591
Fe 0.775672 0.000000 1.366833
Fe 0.775672 0.000000 2.201074
Fe 1.143095 0.681155 0.000000
Fe 1.143095 0.681155 0.834242
Fe 1.143095 0.681155 1.668483
Fe 1.510519 1.362311 -0.532591
Fe 1.510519 1.362311 0.301651
Fe 1.510519 1.362311 1.135892
Fe 1.551344 0.000000 1.065182
Fe 1.551344 0.000000 1.899423
Fe 1.551344 0.000000 2.733665
Fe 1.918767 0.681155 0.532591
Fe 1.918767 0.681155 1.366833
Fe 1.918767 0.681155 2.201074
Fe 2.286190 1.362311 0.000000
Fe 2.286190 1.362311 0.834242
Fe 2.286190 1.362311 1.668483
