27
A
Fe 0.000000 0.000000 0.000000
Fe 0.000000 0.000000 0.722999
Fe 0.000000 0.000000 1.445997
Fe 0.224537 0.590326 -0.375933
Fe 0.224537 0.590326 0.347066
Fe 0.224537 0.590326 1.070064
Fe 0.449073 1.180652 -0.751866
Fe 0.449073 1.180652 -0.028868
Fe 0.449073 1.180652 0.694131
Fe 0.632785 0.000000 0.375933
Fe 0.632785 0.000000 1.098932
Fe 0.632785 0.000000 1.821930
Fe 0.857321 0.590326 -0.000000
Fe 0.857321 0.590326 0.722999
Fe 0.857321 0.590326 1.445997
Fe 1.081858 1.180652 -0.375933
Fe 1.081858 1.180652 0.347066
Fe 1.081858 1.180652 1.070064
Fe 1.265570 0.000000 0.751866
Fe 1.265570 0.000000 1.474865
Fe 1.265570 0.000000 2.197863
Fe 1.490106 0.590326 0.375933
Fe 1.490106 0.590326 1.098932
Fe 1.490106 0.590326 1.821930
Fe 1.714643 1.180652 -0.000000
Fe 1.714643 1.180652 0.722999
Fe 1.714643 1.180652 1.445997
