27
A
Fe 0.000000 0.000000 0.000000
Fe 0.000000 0.000000 0.775442
Fe 0.000000 0.000000 1.550884
Fe 0.291898 0.633146 -0.449786
Fe 0.291898 0.633146 0.325656
Fe 0.291898 0.633146 1.101098
Fe 0.583795 1.266291 -0.899572
Fe 0.583795 1.266291 -0.124130
Fe 0.583795 1.266291 0.651311
Fe 0.700146 0.000000 0.449786
Fe 0.700146 0.000000 1.225228
Fe 0.700146 0.000000 2.000670
Fe 0.992043 0.633146 0.000000
Fe 0.992043 0.633146 0.775442
Fe 0.992043 0.633146 1.550884
Fe 1.283941 1.266291 -0.449786
Fe 1.283941 1.266291 0.325656
Fe 1.283941 1.266291 1.101098
Fe 1.400292 0.000000 0.899572
Fe 1.400292 0.000000 1.675014
Fe 1.400292 0.000000 2.450456
Fe 1.692189 0.633146 0.449786
Fe 1.692189 0.633146 1.225228
Fe 1.692189 0.633146 2.000670
Fe 1.984087 1.266291 0.000000
Fe 1.984087 1.266291 0.775442
Fe 1.984087 1.266291 1.550884
