27
A
Fe 0.000000 0.000000 0.000000
Fe 0.000000 0.000000 0.773853
Fe 0.000000 0.000000 1.547705
Fe 0.289856 0.631848 -0.447548
Fe 0.289856 0.631848 0.326305
Fe 0.289856 0.631848 1.100157
Fe 0.579713 1.263696 -0.895096
Fe 0.579713 1.263696 -0.121244
Fe 0.579713 1.263696 0.652609
Fe 0.698105 0.000000 0.447548
Fe 0.698105 0.000000 1.221401
Fe 0.698105 0.000000 1.995253
Fe 0.987961 0.631848 0.000000
Fe 0.987961 0.631848 0.773853
Fe 0.987961 0.631848 1.547705
Fe 1.277817 1.263696 -0.447548
Fe 1.277817 1.263696 0.326305
Fe 1.277817 1.263696 1.100157
Fe 1.396209 0.000000 0.895096
Fe 1.396209 0.000000 1.668949
Fe 1.396209 0.000000 2.442801
Fe 1.686065 0.631848 0.447548
Fe 1.686065 0.631848 1.221401
Fe 1.686065 0.631848 1.995253
Fe 1.975922 1.263696 0.000000
Fe 1.975922 1.263696 0.773853
Fe 1.975922 1.263696 1.547705
