27
A
Fe 0.000000 0.000000 0.000000
Fe 0.000000 0.000000 0.708696
Fe 0.000000 0.000000 1.417392
Fe 0.206165 0.578648 -0.355791
Fe 0.206165 0.578648 0.352905
Fe 0.206165 0.578648 1.061601
Fe 0.412331 1.157296 -0.711583
Fe 0.412331 1.157296 -0.002887
Fe 0.412331 1.157296 0.705809
Fe 0.614414 0.000000 0.355791
Fe 0.614414 0.000000 1.064487
Fe 0.614414 0.000000 1.773183
Fe 0.820579 0.578648 -0.000000
Fe 0.820579 0.578648 0.708696
Fe 0.820579 0.578648 1.417392
Fe 1.026744 1.157296 -0.355791
Fe 1.026744 1.157296 0.352905
Fe 1.026744 1.157296 1.061601
Fe 1.228827 0.000000 0.711583
Fe 1.228827 0.000000 1.420279
Fe 1.228827 0.000000 2.128975
Fe 1.434993 0.578648 0.355791
Fe 1.434993 0.578648 1.064487
Fe 1.434993 0.578648 1.773183
Fe 1.641158 1.157296 -0.000000
Fe 1.641158 1.157296 0.708696
Fe 1.641158 1.157296 1.417392
