27
A
Fe 0.000000 0.000000 0.000000
Fe 0.000000 0.000000 0.716642
Fe 0.000000 0.000000 1.433284
Fe 0.216372 0.585136 -0.366981
Fe 0.216372 0.585136 0.349661
Fe 0.216372 0.585136 1.066303
Fe 0.432743 1.170271 -0.733962
Fe 0.432743 1.170271 -0.017321
Fe 0.432743 1.170271 0.699321
Fe 0.624620 0.000000 0.366981
Fe 0.624620 0.000000 1.083623
Fe 0.624620 0.000000 1.800265
Fe 0.840991 0.585136 0.000000
Fe 0.840991 0.585136 0.716642
Fe 0.840991 0.585136 1.433284
Fe 1.057363 1.170271 -0.366981
Fe 1.057363 1.170271 0.349661
Fe 1.057363 1.170271 1.066303
Fe 1.249240 0.000000 0.733962
Fe 1.249240 0.000000 1.450604
Fe 1.249240 0.000000 2.167246
Fe 1.465611 0.585136 0.366981
Fe 1.465611 0.585136 1.083623
Fe 1.465611 0.585136 1.800265
Fe 1.681983 1.170271 0.000000
Fe 1.681983 1.170271 0.716642
Fe 1.681983 1.170271 1.433284
