54
A
Ti 0.000000 0.000000 0.000000
Ti 1.327565 0.938730 2.299411
Ti 0.000000 0.000000 4.598821
Ti 1.327565 0.938730 6.898232
Ti 0.000000 0.000000 9.197642
Ti 1.327565 0.938730 11.497053
Ti 0.000000 2.816191 -4.598821
Ti 1.327565 3.754922 -2.299411
Ti 0.000000 2.816191 0.000000
Ti 1.327565 3.754922 2.299411
Ti 0.000000 2.816191 4.598821
Ti 1.327565 3.754922 6.898232
Ti 0.000000 5.632383 -9.197642
Ti 1.327565 6.571113 -6.898232
Ti 0.000000 5.632383 -4.598821
Ti 1.327565 6.571113 -2.299411
Ti 0.000000 5.632383 0.000000
Ti 1.327565 6.571113 2.299411
Ti 2.655131 -0.938730 4.598821
Ti 3.982696 0.000000 6.898232
Ti 2.655131 -0.938730 9.197642
Ti 3.982696 0.000000 11.497053
Ti 2.655131 -0.938730 13.796463
Ti 3.982696 0.000000 16.095874
Ti 2.655131 1.877461 0.000000
Ti 3.982696 2.816191 2.299411
Ti 2.655131 1.877461 4.598821
Ti 3.982696 2.816191 6.898232
Ti 2.655131 1.877461 9.197642
Ti 3.982696 2.816191 11.497053
Ti 2.655131 4.693652 -4.598821
Ti 3.982696 5.632383 -2.299411
Ti 2.655131 4.693652 0.000000
Ti 3.982696 5.632383 2.299411
Ti 2.655131 4.693652 4.598821
Ti 3.982696 5.632383 6.898232
Ti 5.310261 -1.877461 9.197642
Ti 6.637826 -0.938730 11.497053
Ti 5.310261 -1.877461 13.796463
Ti 6.637826 -0.938730 16.095874
Ti 5.310261 -1.877461 18.395284
Ti 6.637826 -0.938730 20.694695
Ti 5.310261 0.938730 4.598821
Ti 6.637826 1.877461 6.898232
Ti 5.310261 0.938730 9.197642
Ti 6.637826 1.877461 11.497053
Ti 5.310261 0.938730 13.796463
Ti 6.637826 1.877461 16.095874
Ti 5.310261 3.754922 0.000000
Ti 6.637826 4.693652 2.299411
Ti 5.310261 3.754922 4.598821
Ti 6.637826 4.693652 6.898232
Ti 5.310261 3.754922 9.197642
Ti 6.637826 4.693652 11.497053
