54
A
Ti 0.945125 1.651029 3.453386
Ti 0.596557 0.406388 1.151129
Ti 0.945125 1.651029 8.057901
Ti 0.596557 0.406388 5.755644
Ti 0.945125 1.651029 12.662416
Ti 0.596557 0.406388 10.360159
Ti 2.486806 3.708446 3.453386
Ti 2.138238 2.463806 1.151129
Ti 2.486806 3.708446 8.057901
Ti 2.138238 2.463806 5.755644
Ti 2.486806 3.708446 12.662416
Ti 2.138238 2.463806 10.360159
Ti 4.028487 5.765863 3.453386
Ti 3.679920 4.521223 1.151129
Ti 4.028487 5.765863 8.057901
Ti 3.679920 4.521223 5.755644
Ti 4.028487 5.765863 12.662416
Ti 3.679920 4.521223 10.360159
Ti 3.676499 0.965756 8.057901
Ti 3.327931 -0.278885 5.755644
Ti 3.676499 0.965756 12.662416
Ti 3.327931 -0.278885 10.360159
Ti 3.676499 0.965756 17.266931
Ti 3.327931 -0.278885 14.964674
Ti 5.218180 3.023173 8.057901
Ti 4.869613 1.778532 5.755644
Ti 5.218180 3.023173 12.662416
Ti 4.869613 1.778532 10.360159
Ti 5.218180 3.023173 17.266931
Ti 4.869613 1.778532 14.964674
Ti 6.759862 5.080590 8.057901
Ti 6.411294 3.835950 5.755644
Ti 6.759862 5.080590 12.662416
Ti 6.411294 3.835950 10.360159
Ti 6.759862 5.080590 17.266931
Ti 6.411294 3.835950 14.964674
Ti 6.407874 0.280482 12.662416
Ti 6.059306 -0.964158 10.360159
Ti 6.407874 0.280482 17.266931
Ti 6.059306 -0.964158 14.964674
Ti 6.407874 0.280482 21.871446
Ti 6.059306 -0.964158 19.569189
Ti 7.949555 2.337900 12.662416
Ti 7.600987 1.093259 10.360159
Ti 7.949555 2.337900 17.266931
Ti 7.600987 1.093259 14.964674
Ti 7.949555 2.337900 21.871446
Ti 7.600987 1.093259 19.569189
Ti 9.491236 4.395317 12.662416
Ti 9.142669 3.150676 10.360159
Ti 9.491236 4.395317 17.266931
Ti 9.142669 3.150676 14.964674
Ti 9.491236 4.395317 21.871446
Ti 9.142669 3.150676 19.569189
