54
A
Ti -2.064559 2.106102 3.464458
Ti 0.719521 0.417869 1.154819
Ti -2.064559 2.106102 8.083735
Ti 0.719521 0.417869 5.774096
Ti -2.064559 2.106102 12.703012
Ti 0.719521 0.417869 10.393373
Ti -3.409598 4.630072 3.464458
Ti -0.625518 2.941840 1.154819
Ti -3.409598 4.630072 8.083735
Ti -0.625518 2.941840 5.774096
Ti -3.409598 4.630072 12.703012
Ti -0.625518 2.941840 10.393373
Ti -4.754636 7.154043 3.464458
Ti -1.970557 5.465811 1.154819
Ti -4.754636 7.154043 8.083735
Ti -1.970557 5.465811 5.774096
Ti -4.754636 7.154043 12.703012
Ti -1.970557 5.465811 10.393373
Ti 0.864485 2.077940 8.083735
Ti 3.648564 0.389707 5.774096
Ti 0.864485 2.077940 12.703012
Ti 3.648564 0.389707 10.393373
Ti 0.864485 2.077940 17.322289
Ti 3.648564 0.389707 15.012650
Ti -0.480554 4.601910 8.083735
Ti 2.303526 2.913678 5.774096
Ti -0.480554 4.601910 12.703012
Ti 2.303526 2.913678 10.393373
Ti -0.480554 4.601910 17.322289
Ti 2.303526 2.913678 15.012650
Ti -1.825593 7.125881 8.083735
Ti 0.958487 5.437649 5.774096
Ti -1.825593 7.125881 12.703012
Ti 0.958487 5.437649 10.393373
Ti -1.825593 7.125881 17.322289
Ti 0.958487 5.437649 15.012650
Ti 3.793528 2.049778 12.703012
Ti 6.577608 0.361545 10.393373
Ti 3.793528 2.049778 17.322289
Ti 6.577608 0.361545 15.012650
Ti 3.793528 2.049778 21.941565
Ti 6.577608 0.361545 19.631927
Ti 2.448490 4.573749 12.703012
Ti 5.232570 2.885516 10.393373
Ti 2.448490 4.573749 17.322289
Ti 5.232570 2.885516 15.012650
Ti 2.448490 4.573749 21.941565
Ti 5.232570 2.885516 19.631927
Ti 1.103451 7.097719 12.703012
Ti 3.887531 5.409487 10.393373
Ti 1.103451 7.097719 17.322289
Ti 3.887531 5.409487 15.012650
Ti 1.103451 7.097719 21.941565
Ti 3.887531 5.409487 19.631927
