54
A
Ti 0.873212 2.057863 3.463351
Ti 0.714185 0.419452 1.154450
Ti 0.873212 2.057863 8.081151
Ti 0.714185 0.419452 5.772251
Ti 0.873212 2.057863 12.698952
Ti 0.714185 0.419452 10.390052
Ti -0.448667 4.629052 -1.154450
Ti -0.607695 2.990641 -3.463351
Ti -0.448667 4.629052 3.463351
Ti -0.607695 2.990641 1.154450
Ti -0.448667 4.629052 8.081151
Ti -0.607695 2.990641 5.772251
Ti -1.770547 7.200240 -5.772251
Ti -1.929574 5.561829 -8.081151
Ti -1.770547 7.200240 -1.154450
Ti -1.929574 5.561829 -3.463351
Ti -1.770547 7.200240 3.463351
Ti -1.929574 5.561829 1.154450
Ti 3.782489 1.963990 8.081151
Ti 3.623462 0.325579 5.772251
Ti 3.782489 1.963990 12.698952
Ti 3.623462 0.325579 10.390052
Ti 3.782489 1.963990 17.316753
Ti 3.623462 0.325579 15.007852
Ti 2.460610 4.535179 3.463351
Ti 2.301582 2.896768 1.154450
Ti 2.460610 4.535179 8.081151
Ti 2.301582 2.896768 5.772251
Ti 2.460610 4.535179 12.698952
Ti 2.301582 2.896768 10.390052
Ti 1.138730 7.106367 -1.154450
Ti 0.979702 5.467956 -3.463351
Ti 1.138730 7.106367 3.463351
Ti 0.979702 5.467956 1.154450
Ti 1.138730 7.106367 8.081151
Ti 0.979702 5.467956 5.772251
Ti 6.691766 1.870117 12.698952
Ti 6.532739 0.231706 10.390052
Ti 6.691766 1.870117 17.316753
Ti 6.532739 0.231706 15.007852
Ti 6.691766 1.870117 21.934554
Ti 6.532739 0.231706 19.625653
Ti 5.369886 4.441306 8.081151
Ti 5.210859 2.802894 5.772251
Ti 5.369886 4.441306 12.698952
Ti 5.210859 2.802894 10.390052
Ti 5.369886 4.441306 17.316753
Ti 5.210859 2.802894 15.007852
Ti 4.048007 7.012494 3.463351
Ti 3.888979 5.374083 1.154450
Ti 4.048007 7.012494 8.081151
Ti 3.888979 5.374083 5.772251
Ti 4.048007 7.012494 12.698952
Ti 3.888979 5.374083 10.390052
