54
A
Ti 0.748397 2.113849 3.464774
Ti 0.732227 0.423452 1.154925
Ti 0.748397 2.113849 8.084473
Ti 0.732227 0.423452 5.774623
Ti 0.748397 2.113849 12.704171
Ti 0.732227 0.423452 10.394322
Ti -0.705671 4.660537 -1.154925
Ti -0.721840 2.970140 -3.464774
Ti -0.705671 4.660537 3.464774
Ti -0.721840 2.970140 1.154925
Ti -0.705671 4.660537 8.084473
Ti -0.721840 2.970140 5.774623
Ti -2.159739 7.207225 -5.774623
Ti -2.175908 5.516828 -8.084473
Ti -2.159739 7.207225 -1.154925
Ti -2.175908 5.516828 -3.464774
Ti -2.159739 7.207225 3.464774
Ti -2.175908 5.516828 1.154925
Ti 3.683088 2.104461 8.084473
Ti 3.666919 0.414065 5.774623
Ti 3.683088 2.104461 12.704171
Ti 3.666919 0.414065 10.394322
Ti 3.683088 2.104461 17.323870
Ti 3.666919 0.414065 15.014021
Ti 2.229021 4.651150 3.464774
Ti 2.212851 2.960753 1.154925
Ti 2.229021 4.651150 8.084473
Ti 2.212851 2.960753 5.774623
Ti 2.229021 4.651150 12.704171
Ti 2.212851 2.960753 10.394322
Ti 0.774953 7.197838 -1.154925
Ti 0.758783 5.507441 -3.464774
Ti 0.774953 7.197838 3.464774
Ti 0.758783 5.507441 1.154925
Ti 0.774953 7.197838 8.084473
Ti 0.758783 5.507441 5.774623
Ti 6.617780 2.095074 12.704171
Ti 6.601610 0.404678 10.394322
Ti 6.617780 2.095074 17.323870
Ti 6.601610 0.404678 15.014021
Ti 6.617780 2.095074 21.943569
Ti 6.601610 0.404678 19.633720
Ti 5.163712 4.641762 8.084473
Ti 5.147543 2.951366 5.774623
Ti 5.163712 4.641762 12.704171
Ti 5.147543 2.951366 10.394322
Ti 5.163712 4.641762 17.323870
Ti 5.147543 2.951366 15.014021
Ti 3.709644 7.188450 3.464774
Ti 3.693475 5.498054 1.154925
Ti 3.709644 7.188450 8.084473
Ti 3.693475 5.498054 5.774623
Ti 3.709644 7.188450 12.704171
Ti 3.693475 5.498054 10.394322
