54
A
Ti -0.122676 1.849499 3.457498
Ti 0.592147 0.381210 1.152499
Ti -0.122676 1.849499 8.067496
Ti 0.592147 0.381210 5.762497
Ti -0.122676 1.849499 12.677494
Ti 0.592147 0.381210 10.372495
Ti 0.346795 4.080207 3.457498
Ti 1.061618 2.611918 1.152499
Ti 0.346795 4.080207 8.067496
Ti 1.061618 2.611918 5.762497
Ti 0.346795 4.080207 12.677494
Ti 1.061618 2.611918 10.372495
Ti 0.816266 6.310916 3.457498
Ti 1.531089 4.842627 1.152499
Ti 0.816266 6.310916 8.067496
Ti 1.531089 4.842627 5.762497
Ti 0.816266 6.310916 12.677494
Ti 1.531089 4.842627 10.372495
Ti 2.682119 1.408296 8.067496
Ti 3.396942 -0.059994 5.762497
Ti 2.682119 1.408296 12.677494
Ti 3.396942 -0.059994 10.372495
Ti 2.682119 1.408296 17.287492
Ti 3.396942 -0.059994 14.982493
Ti 3.151590 3.639004 8.067496
Ti 3.866413 2.170715 5.762497
Ti 3.151590 3.639004 12.677494
Ti 3.866413 2.170715 10.372495
Ti 3.151590 3.639004 17.287492
Ti 3.866413 2.170715 14.982493
Ti 3.621061 5.869713 8.067496
Ti 4.335884 4.401423 5.762497
Ti 3.621061 5.869713 12.677494
Ti 4.335884 4.401423 10.372495
Ti 3.621061 5.869713 17.287492
Ti 4.335884 4.401423 14.982493
Ti 5.486913 0.967092 12.677494
Ti 6.201736 -0.501197 10.372495
Ti 5.486913 0.967092 17.287492
Ti 6.201736 -0.501197 14.982493
Ti 5.486913 0.967092 21.897490
Ti 6.201736 -0.501197 19.592491
Ti 5.956384 3.197801 12.677494
Ti 6.671207 1.729512 10.372495
Ti 5.956384 3.197801 17.287492
Ti 6.671207 1.729512 14.982493
Ti 5.956384 3.197801 21.897490
Ti 6.671207 1.729512 19.592491
Ti 6.425855 5.428509 12.677494
Ti 7.140678 3.960220 10.372495
Ti 6.425855 5.428509 17.287492
Ti 7.140678 3.960220 14.982493
Ti 6.425855 5.428509 21.897490
Ti 7.140678 3.960220 19.592491
