54
A
Ti -1.744285 2.071944 3.463351
Ti 0.687918 0.405371 1.154450
Ti -1.744285 2.071944 8.081151
Ti 0.687918 0.405371 5.772251
Ti -1.744285 2.071944 12.698952
Ti 0.687918 0.405371 10.390052
Ti -2.800651 4.549260 3.463351
Ti -0.368449 2.882686 1.154450
Ti -2.800651 4.549260 8.081151
Ti -0.368449 2.882686 5.772251
Ti -2.800651 4.549260 12.698952
Ti -0.368449 2.882686 10.390052
Ti -3.857018 7.026575 3.463351
Ti -1.424815 5.360002 1.154450
Ti -3.857018 7.026575 8.081151
Ti -1.424815 5.360002 5.772251
Ti -3.857018 7.026575 12.698952
Ti -1.424815 5.360002 10.390052
Ti 1.164992 1.978071 8.081151
Ti 3.597195 0.311498 5.772251
Ti 1.164992 1.978071 12.698952
Ti 3.597195 0.311498 10.390052
Ti 1.164992 1.978071 17.316753
Ti 3.597195 0.311498 15.007852
Ti 0.108626 4.455387 8.081151
Ti 2.540828 2.788813 5.772251
Ti 0.108626 4.455387 12.698952
Ti 2.540828 2.788813 10.390052
Ti 0.108626 4.455387 17.316753
Ti 2.540828 2.788813 15.007852
Ti -0.947741 6.932702 8.081151
Ti 1.484462 5.266129 5.772251
Ti -0.947741 6.932702 12.698952
Ti 1.484462 5.266129 10.390052
Ti -0.947741 6.932702 17.316753
Ti 1.484462 5.266129 15.007852
Ti 4.074269 1.884198 12.698952
Ti 6.506472 0.217625 10.390052
Ti 4.074269 1.884198 17.316753
Ti 6.506472 0.217625 15.007852
Ti 4.074269 1.884198 21.934554
Ti 6.506472 0.217625 19.625653
Ti 3.017902 4.361514 12.698952
Ti 5.450105 2.694940 10.390052
Ti 3.017902 4.361514 17.316753
Ti 5.450105 2.694940 15.007852
Ti 3.017902 4.361514 21.934554
Ti 5.450105 2.694940 19.625653
Ti 1.961536 6.838829 12.698952
Ti 4.393739 5.172256 10.390052
Ti 1.961536 6.838829 17.316753
Ti 4.393739 5.172256 15.007852
Ti 1.961536 6.838829 21.934554
Ti 4.393739 5.172256 19.625653
