54
A
Ti 1.181445 1.907362 3.459713
Ti 0.678817 0.416657 1.153238
Ti 1.181445 1.907362 8.072663
Ti 0.678817 0.416657 5.766188
Ti 1.181445 1.907362 12.685614
Ti 0.678817 0.416657 10.379138
Ti 0.197379 4.541162 -1.153238
Ti -0.305249 3.050457 -3.459713
Ti 0.197379 4.541162 3.459713
Ti -0.305249 3.050457 1.153238
Ti 0.197379 4.541162 8.072663
Ti -0.305249 3.050457 5.766188
Ti -0.786687 7.174963 -5.766188
Ti -1.289315 5.684258 -8.072663
Ti -0.786687 7.174963 -1.153238
Ti -1.289315 5.684258 -3.459713
Ti -0.786687 7.174963 3.459713
Ti -1.289315 5.684258 1.153238
Ti 4.025774 1.597581 8.072663
Ti 3.523145 0.106876 5.766188
Ti 4.025774 1.597581 12.685614
Ti 3.523145 0.106876 10.379138
Ti 4.025774 1.597581 17.298564
Ti 3.523145 0.106876 14.992089
Ti 3.041708 4.231381 3.459713
Ti 2.539079 2.740676 1.153238
Ti 3.041708 4.231381 8.072663
Ti 2.539079 2.740676 5.766188
Ti 3.041708 4.231381 12.685614
Ti 2.539079 2.740676 10.379138
Ti 2.057642 6.865182 -1.153238
Ti 1.555014 5.374477 -3.459713
Ti 2.057642 6.865182 3.459713
Ti 1.555014 5.374477 1.153238
Ti 2.057642 6.865182 8.072663
Ti 1.555014 5.374477 5.766188
Ti 6.870102 1.287800 12.685614
Ti 6.367474 -0.202905 10.379138
Ti 6.870102 1.287800 17.298564
Ti 6.367474 -0.202905 14.992089
Ti 6.870102 1.287800 21.911514
Ti 6.367474 -0.202905 19.605039
Ti 5.886036 3.921600 8.072663
Ti 5.383408 2.430895 5.766188
Ti 5.886036 3.921600 12.685614
Ti 5.383408 2.430895 10.379138
Ti 5.886036 3.921600 17.298564
Ti 5.383408 2.430895 14.992089
Ti 4.901970 6.555401 3.459713
Ti 4.399342 5.064695 1.153238
Ti 4.901970 6.555401 8.072663
Ti 4.399342 5.064695 5.766188
Ti 4.901970 6.555401 12.685614
Ti 4.399342 5.064695 10.379138
