54
A
Ti 0.982175 2.006726 3.462085
Ti 0.700132 0.417269 1.154028
Ti 0.982175 2.006726 8.078199
Ti 0.700132 0.417269 5.770142
Ti 0.982175 2.006726 12.694313
Ti 0.700132 0.417269 10.386256
Ti -0.222204 4.599692 -1.154028
Ti -0.504247 3.010235 -3.462085
Ti -0.222204 4.599692 3.462085
Ti -0.504247 3.010235 1.154028
Ti -0.222204 4.599692 8.078199
Ti -0.504247 3.010235 5.770142
Ti -1.426584 7.192659 -5.770142
Ti -1.708627 5.603202 -8.078199
Ti -1.426584 7.192659 -1.154028
Ti -1.708627 5.603202 -3.462085
Ti -1.426584 7.192659 3.462085
Ti -1.708627 5.603202 1.154028
Ti 3.868861 1.837755 8.078199
Ti 3.586818 0.248297 5.770142
Ti 3.868861 1.837755 12.694313
Ti 3.586818 0.248297 10.386256
Ti 3.868861 1.837755 17.310426
Ti 3.586818 0.248297 15.002369
Ti 2.664482 4.430721 3.462085
Ti 2.382439 2.841264 1.154028
Ti 2.664482 4.430721 8.078199
Ti 2.382439 2.841264 5.770142
Ti 2.664482 4.430721 12.694313
Ti 2.382439 2.841264 10.386256
Ti 1.460102 7.023687 -1.154028
Ti 1.178060 5.434230 -3.462085
Ti 1.460102 7.023687 3.462085
Ti 1.178060 5.434230 1.154028
Ti 1.460102 7.023687 8.078199
Ti 1.178060 5.434230 5.770142
Ti 6.755547 1.668783 12.694313
Ti 6.473504 0.079326 10.386256
Ti 6.755547 1.668783 17.310426
Ti 6.473504 0.079326 15.002369
Ti 6.755547 1.668783 21.926540
Ti 6.473504 0.079326 19.618483
Ti 5.551168 4.261750 8.078199
Ti 5.269125 2.672292 5.770142
Ti 5.551168 4.261750 12.694313
Ti 5.269125 2.672292 10.386256
Ti 5.551168 4.261750 17.310426
Ti 5.269125 2.672292 15.002369
Ti 4.346789 6.854716 3.462085
Ti 4.064746 5.265259 1.154028
Ti 4.346789 6.854716 8.078199
Ti 4.064746 5.265259 5.770142
Ti 4.346789 6.854716 12.694313
Ti 4.064746 5.265259 10.386256
