54
A
Ti 1.739857 1.582024 3.452595
Ti 0.654273 0.442068 1.150865
Ti 1.739857 1.582024 8.056056
Ti 0.654273 0.442068 5.754326
Ti 1.739857 1.582024 12.659517
Ti 0.654273 0.442068 10.357786
Ti 1.416730 4.338326 -1.150865
Ti 0.331146 3.198369 -3.452595
Ti 1.416730 4.338326 3.452595
Ti 0.331146 3.198369 1.150865
Ti 1.416730 4.338326 8.056056
Ti 0.331146 3.198369 5.754326
Ti 1.093604 7.094628 -5.754326
Ti 0.008020 5.954671 -8.056056
Ti 1.093604 7.094628 -1.150865
Ti 0.008020 5.954671 -3.452595
Ti 1.093604 7.094628 3.452595
Ti 0.008020 5.954671 1.150865
Ti 4.457112 0.849815 8.056056
Ti 3.371528 -0.290142 5.754326
Ti 4.457112 0.849815 12.659517
Ti 3.371528 -0.290142 10.357786
Ti 4.457112 0.849815 17.262977
Ti 3.371528 -0.290142 14.961247
Ti 4.133986 3.606116 3.452595
Ti 3.048402 2.466160 1.150865
Ti 4.133986 3.606116 8.056056
Ti 3.048402 2.466160 5.754326
Ti 4.133986 3.606116 12.659517
Ti 3.048402 2.466160 10.357786
Ti 3.810859 6.362418 -1.150865
Ti 2.725276 5.222461 -3.452595
Ti 3.810859 6.362418 3.452595
Ti 2.725276 5.222461 1.150865
Ti 3.810859 6.362418 8.056056
Ti 2.725276 5.222461 5.754326
Ti 7.174367 0.117605 12.659517
Ti 6.088783 -1.022352 10.357786
Ti 7.174367 0.117605 17.262977
Ti 6.088783 -1.022352 14.961247
Ti 7.174367 0.117605 21.866438
Ti 6.088783 -1.022352 19.564707
Ti 6.851241 2.873906 8.056056
Ti 5.765657 1.733950 5.754326
Ti 6.851241 2.873906 12.659517
Ti 5.765657 1.733950 10.357786
Ti 6.851241 2.873906 17.262977
Ti 5.765657 1.733950 14.961247
Ti 6.528115 5.630208 3.452595
Ti 5.442531 4.490252 1.150865
Ti 6.528115 5.630208 8.056056
Ti 5.442531 4.490252 5.754326
Ti 6.528115 5.630208 12.659517
Ti 5.442531 4.490252 10.357786
