54
A
Ti -1.518144 2.046002 3.462560
Ti 0.667972 0.397988 1.154187
Ti -1.518144 2.046002 8.079306
Ti 0.667972 0.397988 5.770933
Ti -1.518144 2.046002 12.696052
Ti 0.667972 0.397988 10.387679
Ti -2.368316 4.489992 3.462560
Ti -0.182201 2.841978 1.154187
Ti -2.368316 4.489992 8.079306
Ti -0.182201 2.841978 5.770933
Ti -2.368316 4.489992 12.696052
Ti -0.182201 2.841978 10.387679
Ti -3.218489 6.933982 3.462560
Ti -1.032373 5.285968 1.154187
Ti -3.218489 6.933982 8.079306
Ti -1.032373 5.285968 5.770933
Ti -3.218489 6.933982 12.696052
Ti -1.032373 5.285968 10.387679
Ti 1.377014 1.905192 8.079306
Ti 3.563129 0.257179 5.770933
Ti 1.377014 1.905192 12.696052
Ti 3.563129 0.257179 10.387679
Ti 1.377014 1.905192 17.312799
Ti 3.563129 0.257179 15.004426
Ti 0.526841 4.349183 8.079306
Ti 2.712957 2.701169 5.770933
Ti 0.526841 4.349183 12.696052
Ti 2.712957 2.701169 10.387679
Ti 0.526841 4.349183 17.312799
Ti 2.712957 2.701169 15.004426
Ti -0.323331 6.793173 8.079306
Ti 1.862785 5.145159 5.770933
Ti -0.323331 6.793173 12.696052
Ti 1.862785 5.145159 10.387679
Ti -0.323331 6.793173 17.312799
Ti 1.862785 5.145159 15.004426
Ti 4.272171 1.764383 12.696052
Ti 6.458287 0.116369 10.387679
Ti 4.272171 1.764383 17.312799
Ti 6.458287 0.116369 15.004426
Ti 4.272171 1.764383 21.929545
Ti 6.458287 0.116369 19.621172
Ti 3.421999 4.208373 12.696052
Ti 5.608115 2.560359 10.387679
Ti 3.421999 4.208373 17.312799
Ti 5.608115 2.560359 15.004426
Ti 3.421999 4.208373 21.929545
Ti 5.608115 2.560359 19.621172
Ti 2.571827 6.652363 12.696052
Ti 4.757942 5.004349 10.387679
Ti 2.571827 6.652363 17.312799
Ti 4.757942 5.004349 15.004426
Ti 2.571827 6.652363 21.929545
Ti 4.757942 5.004349 19.621172
