54
A
Ti 0.703962 1.699918 3.454335
Ti 0.590286 0.397490 1.151445
Ti 0.703962 1.699918 8.060115
Ti 0.590286 0.397490 5.757225
Ti 0.703962 1.699918 12.665896
Ti 0.590286 0.397490 10.363006
Ti 1.998211 3.797325 3.454335
Ti 1.884534 2.494897 1.151445
Ti 1.998211 3.797325 8.060115
Ti 1.884534 2.494897 5.757225
Ti 1.998211 3.797325 12.665896
Ti 1.884534 2.494897 10.363006
Ti 3.292459 5.894733 3.454335
Ti 3.178782 4.592305 1.151445
Ti 3.292459 5.894733 8.060115
Ti 3.178782 4.592305 5.757225
Ti 3.292459 5.894733 12.665896
Ti 3.178782 4.592305 10.363006
Ti 3.452280 1.070969 8.060115
Ti 3.338603 -0.231460 5.757225
Ti 3.452280 1.070969 12.665896
Ti 3.338603 -0.231460 10.363006
Ti 3.452280 1.070969 17.271676
Ti 3.338603 -0.231460 14.968786
Ti 4.746528 3.168376 8.060115
Ti 4.632852 1.865948 5.757225
Ti 4.746528 3.168376 12.665896
Ti 4.632852 1.865948 10.363006
Ti 4.746528 3.168376 17.271676
Ti 4.632852 1.865948 14.968786
Ti 6.040777 5.265784 8.060115
Ti 5.927100 3.963355 5.757225
Ti 6.040777 5.265784 12.665896
Ti 5.927100 3.963355 10.363006
Ti 6.040777 5.265784 17.271676
Ti 5.927100 3.963355 14.968786
Ti 6.200598 0.442019 12.665896
Ti 6.086921 -0.860409 10.363006
Ti 6.200598 0.442019 17.271676
Ti 6.086921 -0.860409 14.968786
Ti 6.200598 0.442019 21.877456
Ti 6.086921 -0.860409 19.574566
Ti 7.494846 2.539427 12.665896
Ti 7.381169 1.236998 10.363006
Ti 7.494846 2.539427 17.271676
Ti 7.381169 1.236998 14.968786
Ti 7.494846 2.539427 21.877456
Ti 7.381169 1.236998 19.574566
Ti 8.789094 4.636834 12.665896
Ti 8.675418 3.334406 10.363006
Ti 8.789094 4.636834 17.271676
Ti 8.675418 3.334406 14.968786
Ti 8.789094 4.636834 21.877456
Ti 8.675418 3.334406 19.574566
