54
A
Ti 1.336134 1.824602 3.457815
Ti 0.666493 0.419437 1.152605
Ti 1.336134 1.824602 8.068235
Ti 0.666493 0.419437 5.763025
Ti 1.336134 1.824602 12.678654
Ti 0.666493 0.419437 10.373444
Ti 0.528318 4.491069 -1.152605
Ti -0.141322 3.085904 -3.457815
Ti 0.528318 4.491069 3.457815
Ti -0.141322 3.085904 1.152605
Ti 0.528318 4.491069 8.068235
Ti -0.141322 3.085904 5.763025
Ti -0.279497 7.157536 -5.763025
Ti -0.949138 5.752372 -8.068235
Ti -0.279497 7.157536 -1.152605
Ti -0.949138 5.752372 -3.457815
Ti -0.279497 7.157536 3.457815
Ti -0.949138 5.752372 1.152605
Ti 4.146576 1.402173 8.068235
Ti 3.476935 -0.002992 5.763025
Ti 4.146576 1.402173 12.678654
Ti 3.476935 -0.002992 10.373444
Ti 4.146576 1.402173 17.289074
Ti 3.476935 -0.002992 14.983864
Ti 3.338761 4.068640 3.457815
Ti 2.669120 2.663476 1.152605
Ti 3.338761 4.068640 8.068235
Ti 2.669120 2.663476 5.763025
Ti 3.338761 4.068640 12.678654
Ti 2.669120 2.663476 10.373444
Ti 2.530945 6.735108 -1.152605
Ti 1.861305 5.329943 -3.457815
Ti 2.530945 6.735108 3.457815
Ti 1.861305 5.329943 1.152605
Ti 2.530945 6.735108 8.068235
Ti 1.861305 5.329943 5.763025
Ti 6.957018 0.979744 12.678654
Ti 6.287378 -0.425420 10.373444
Ti 6.957018 0.979744 17.289074
Ti 6.287378 -0.425420 14.983864
Ti 6.957018 0.979744 21.899494
Ti 6.287378 -0.425420 19.594284
Ti 6.149203 3.646212 8.068235
Ti 5.479562 2.241047 5.763025
Ti 6.149203 3.646212 12.678654
Ti 5.479562 2.241047 10.373444
Ti 6.149203 3.646212 17.289074
Ti 5.479562 2.241047 14.983864
Ti 5.341387 6.312679 3.457815
Ti 4.671747 4.907514 1.152605
Ti 5.341387 6.312679 8.068235
Ti 4.671747 4.907514 5.763025
Ti 5.341387 6.312679 12.678654
Ti 4.671747 4.907514 10.373444
