54
A
Ti 0.622875 1.715803 3.454652
Ti 0.588896 0.394935 1.151551
Ti 0.622875 1.715803 8.060854
Ti 0.588896 0.394935 5.757753
Ti 0.622875 1.715803 12.667056
Ti 0.588896 0.394935 10.363955
Ti 1.834645 3.826540 3.454652
Ti 1.800667 2.505673 1.151551
Ti 1.834645 3.826540 8.060854
Ti 1.800667 2.505673 5.757753
Ti 1.834645 3.826540 12.667056
Ti 1.800667 2.505673 10.363955
Ti 3.046416 5.937278 3.454652
Ti 3.012437 4.616410 1.151551
Ti 3.046416 5.937278 8.060854
Ti 3.012437 4.616410 5.757753
Ti 3.046416 5.937278 12.667056
Ti 3.012437 4.616410 10.363955
Ti 3.376840 1.105628 8.060854
Ti 3.342861 -0.215240 5.757753
Ti 3.376840 1.105628 12.667056
Ti 3.342861 -0.215240 10.363955
Ti 3.376840 1.105628 17.273258
Ti 3.342861 -0.215240 14.970157
Ti 4.588610 3.216365 8.060854
Ti 4.554632 1.895498 5.757753
Ti 4.588610 3.216365 12.667056
Ti 4.554632 1.895498 10.363955
Ti 4.588610 3.216365 17.273258
Ti 4.554632 1.895498 14.970157
Ti 5.800381 5.327103 8.060854
Ti 5.766402 4.006236 5.757753
Ti 5.800381 5.327103 12.667056
Ti 5.766402 4.006236 10.363955
Ti 5.800381 5.327103 17.273258
Ti 5.766402 4.006236 14.970157
Ti 6.130805 0.495453 12.667056
Ti 6.096826 -0.825414 10.363955
Ti 6.130805 0.495453 17.273258
Ti 6.096826 -0.825414 14.970157
Ti 6.130805 0.495453 21.879460
Ti 6.096826 -0.825414 19.576359
Ti 7.342576 2.606191 12.667056
Ti 7.308597 1.285323 10.363955
Ti 7.342576 2.606191 17.273258
Ti 7.308597 1.285323 14.970157
Ti 7.342576 2.606191 21.879460
Ti 7.308597 1.285323 19.576359
Ti 8.554346 4.716928 12.667056
Ti 8.520368 3.396061 10.363955
Ti 8.554346 4.716928 17.273258
Ti 8.520368 3.396061 14.970157
Ti 8.554346 4.716928 21.879460
Ti 8.520368 3.396061 19.576359
