54
A
Ti -0.940422 1.972530 3.460504
Ti 0.626355 0.384815 1.153501
Ti -0.940422 1.972530 8.074508
Ti 0.626355 0.384815 5.767506
Ti -0.940422 1.972530 12.688513
Ti 0.626355 0.384815 10.381511
Ti -1.254489 4.329874 3.460504
Ti 0.312287 2.742159 1.153501
Ti -1.254489 4.329874 8.074508
Ti 0.312287 2.742159 5.767506
Ti -1.254489 4.329874 12.688513
Ti 0.312287 2.742159 10.381511
Ti -1.568556 6.687219 3.460504
Ti -0.001780 5.099504 1.153501
Ti -1.568556 6.687219 8.074508
Ti -0.001780 5.099504 5.767506
Ti -1.568556 6.687219 12.688513
Ti -0.001780 5.099504 10.381511
Ti 1.918026 1.709685 8.074508
Ti 3.484802 0.121970 5.767506
Ti 1.918026 1.709685 12.688513
Ti 3.484802 0.121970 10.381511
Ti 1.918026 1.709685 17.302518
Ti 3.484802 0.121970 14.995516
Ti 1.603959 4.067030 8.074508
Ti 3.170735 2.479315 5.767506
Ti 1.603959 4.067030 12.688513
Ti 3.170735 2.479315 10.381511
Ti 1.603959 4.067030 17.302518
Ti 3.170735 2.479315 14.995516
Ti 1.289891 6.424374 8.074508
Ti 2.856668 4.836659 5.767506
Ti 1.289891 6.424374 12.688513
Ti 2.856668 4.836659 10.381511
Ti 1.289891 6.424374 17.302518
Ti 2.856668 4.836659 14.995516
Ti 4.776473 1.446841 12.688513
Ti 6.343250 -0.140874 10.381511
Ti 4.776473 1.446841 17.302518
Ti 6.343250 -0.140874 14.995516
Ti 4.776473 1.446841 21.916523
Ti 6.343250 -0.140874 19.609520
Ti 4.462406 3.804185 12.688513
Ti 6.029183 2.216470 10.381511
Ti 4.462406 3.804185 17.302518
Ti 6.029183 2.216470 14.995516
Ti 4.462406 3.804185 21.916523
Ti 6.029183 2.216470 19.609520
Ti 4.148339 6.161530 12.688513
Ti 5.715116 4.573815 10.381511
Ti 4.148339 6.161530 17.302518
Ti 5.715116 4.573815 14.995516
Ti 4.148339 6.161530 21.916523
Ti 5.715116 4.573815 19.609520
