54
A
Ti -1.428300 2.035265 3.462243
Ti 0.660606 0.395395 1.154081
Ti -1.428300 2.035265 8.078568
Ti 0.660606 0.395395 5.770406
Ti -1.428300 2.035265 12.694893
Ti 0.660606 0.395395 10.386730
Ti -2.195995 4.465925 3.462243
Ti -0.107089 2.826055 1.154081
Ti -2.195995 4.465925 8.078568
Ti -0.107089 2.826055 5.770406
Ti -2.195995 4.465925 12.694893
Ti -0.107089 2.826055 10.386730
Ti -2.963690 6.896585 3.462243
Ti -0.874783 5.256715 1.154081
Ti -2.963690 6.896585 8.078568
Ti -0.874783 5.256715 5.770406
Ti -2.963690 6.896585 12.694893
Ti -0.874783 5.256715 10.386730
Ti 1.461209 1.875681 8.078568
Ti 3.550116 0.235811 5.770406
Ti 1.461209 1.875681 12.694893
Ti 3.550116 0.235811 10.386730
Ti 1.461209 1.875681 17.311217
Ti 3.550116 0.235811 15.003055
Ti 0.693515 4.306341 8.078568
Ti 2.782421 2.666471 5.770406
Ti 0.693515 4.306341 12.694893
Ti 2.782421 2.666471 10.386730
Ti 0.693515 4.306341 17.311217
Ti 2.782421 2.666471 15.003055
Ti -0.074180 6.737001 8.078568
Ti 2.014727 5.097131 5.770406
Ti -0.074180 6.737001 12.694893
Ti 2.014727 5.097131 10.386730
Ti -0.074180 6.737001 17.311217
Ti 2.014727 5.097131 15.003055
Ti 4.350719 1.716096 12.694893
Ti 6.439626 0.076227 10.386730
Ti 4.350719 1.716096 17.311217
Ti 6.439626 0.076227 15.003055
Ti 4.350719 1.716096 21.927542
Ti 6.439626 0.076227 19.619379
Ti 3.583025 4.146756 12.694893
Ti 5.671931 2.506887 10.386730
Ti 3.583025 4.146756 17.311217
Ti 5.671931 2.506887 15.003055
Ti 3.583025 4.146756 21.927542
Ti 5.671931 2.506887 19.619379
Ti 2.815330 6.577417 12.694893
Ti 4.904237 4.937547 10.386730
Ti 2.815330 6.577417 17.311217
Ti 4.904237 4.937547 15.003055
Ti 2.815330 6.577417 21.927542
Ti 4.904237 4.937547 19.619379
