54
A
Ti 1.916039 1.427378 3.449432
Ti 0.656614 0.463413 1.149811
Ti 1.916039 1.427378 8.048675
Ti 0.656614 0.463413 5.749054
Ti 1.916039 1.427378 12.647918
Ti 0.656614 0.463413 10.348296
Ti 4.488692 3.318168 3.449432
Ti 3.229267 2.354204 1.149811
Ti 4.488692 3.318168 8.048675
Ti 3.229267 2.354204 5.749054
Ti 4.488692 3.318168 12.647918
Ti 3.229267 2.354204 10.348296
Ti 7.061345 5.208959 3.449432
Ti 5.801920 4.244995 1.149811
Ti 7.061345 5.208959 8.048675
Ti 5.801920 4.244995 5.749054
Ti 7.061345 5.208959 12.647918
Ti 5.801920 4.244995 10.348296
Ti 4.576817 0.507422 8.048675
Ti 3.317392 -0.456542 5.749054
Ti 4.576817 0.507422 12.647918
Ti 3.317392 -0.456542 10.348296
Ti 4.576817 0.507422 17.247161
Ti 3.317392 -0.456542 14.947539
Ti 7.149470 2.398213 8.048675
Ti 5.890045 1.434249 5.749054
Ti 7.149470 2.398213 12.647918
Ti 5.890045 1.434249 10.348296
Ti 7.149470 2.398213 17.247161
Ti 5.890045 1.434249 14.947539
Ti 9.722123 4.289004 8.048675
Ti 8.462698 3.325039 5.749054
Ti 9.722123 4.289004 12.647918
Ti 8.462698 3.325039 10.348296
Ti 9.722123 4.289004 17.247161
Ti 8.462698 3.325039 14.947539
Ti 7.237595 -0.412534 12.647918
Ti 5.978171 -1.376498 10.348296
Ti 7.237595 -0.412534 17.247161
Ti 5.978171 -1.376498 14.947539
Ti 7.237595 -0.412534 21.846404
Ti 5.978171 -1.376498 19.546782
Ti 9.810248 1.478257 12.647918
Ti 8.550823 0.514293 10.348296
Ti 9.810248 1.478257 17.247161
Ti 8.550823 0.514293 14.947539
Ti 9.810248 1.478257 21.846404
Ti 8.550823 0.514293 19.546782
Ti 12.382901 3.369048 12.647918
Ti 11.123476 2.405084 10.348296
Ti 12.382901 3.369048 17.247161
Ti 11.123476 2.405084 14.947539
Ti 12.382901 3.369048 21.846404
Ti 11.123476 2.405084 19.546782
