54
A
Ti -0.463138 1.903566 3.458764
Ti 0.602698 0.380463 1.152921
Ti -0.463138 1.903566 8.070449
Ti 0.602698 0.380463 5.764606
Ti -0.463138 1.903566 12.682134
Ti 0.602698 0.380463 10.376291
Ti -0.323577 4.187595 3.458764
Ti 0.742258 2.664492 1.152921
Ti -0.323577 4.187595 8.070449
Ti 0.742258 2.664492 5.764606
Ti -0.323577 4.187595 12.682134
Ti 0.742258 2.664492 10.376291
Ti -0.184017 6.471624 3.458764
Ti 0.881818 4.948521 1.152921
Ti -0.184017 6.471624 8.070449
Ti 0.881818 4.948521 5.764606
Ti -0.184017 6.471624 12.682134
Ti 0.881818 4.948521 10.376291
Ti 2.364248 1.537461 8.070449
Ti 3.430083 0.014358 5.764606
Ti 2.364248 1.537461 12.682134
Ti 3.430083 0.014358 10.376291
Ti 2.364248 1.537461 17.293819
Ti 3.430083 0.014358 14.987976
Ti 2.503808 3.821490 8.070449
Ti 3.569643 2.298387 5.764606
Ti 2.503808 3.821490 12.682134
Ti 3.569643 2.298387 10.376291
Ti 2.503808 3.821490 17.293819
Ti 3.569643 2.298387 14.987976
Ti 2.643368 6.105519 8.070449
Ti 3.709204 4.582416 5.764606
Ti 2.643368 6.105519 12.682134
Ti 3.709204 4.582416 10.376291
Ti 2.643368 6.105519 17.293819
Ti 3.709204 4.582416 14.987976
Ti 5.191633 1.171356 12.682134
Ti 6.257468 -0.351747 10.376291
Ti 5.191633 1.171356 17.293819
Ti 6.257468 -0.351747 14.987976
Ti 5.191633 1.171356 21.905504
Ti 6.257468 -0.351747 19.599662
Ti 5.331193 3.455385 12.682134
Ti 6.397029 1.932282 10.376291
Ti 5.331193 3.455385 17.293819
Ti 6.397029 1.932282 14.987976
Ti 5.331193 3.455385 21.905504
Ti 6.397029 1.932282 19.599662
Ti 5.470754 5.739414 12.682134
Ti 6.536589 4.216311 10.376291
Ti 5.470754 5.739414 17.293819
Ti 6.536589 4.216311 14.987976
Ti 5.470754 5.739414 21.905504
Ti 6.536589 4.216311 19.599662
