54
A
Ti -1.653566 2.061722 3.463034
Ti 0.679677 0.402263 1.154345
Ti -1.653566 2.061722 8.080413
Ti 0.679677 0.402263 5.771724
Ti -1.653566 2.061722 12.697792
Ti 0.679677 0.402263 10.389103
Ti -2.627455 4.525707 3.463034
Ti -0.294212 2.866249 1.154345
Ti -2.627455 4.525707 8.080413
Ti -0.294212 2.866249 5.771724
Ti -2.627455 4.525707 12.697792
Ti -0.294212 2.866249 10.389103
Ti -3.601344 6.989692 3.463034
Ti -1.268101 5.330234 1.154345
Ti -3.601344 6.989692 8.080413
Ti -1.268101 5.330234 5.771724
Ti -3.601344 6.989692 12.697792
Ti -1.268101 5.330234 10.389103
Ti 1.250063 1.949074 8.080413
Ti 3.583306 0.289616 5.771724
Ti 1.250063 1.949074 12.697792
Ti 3.583306 0.289616 10.389103
Ti 1.250063 1.949074 17.315171
Ti 3.583306 0.289616 15.006482
Ti 0.276175 4.413059 8.080413
Ti 2.609417 2.753601 5.771724
Ti 0.276175 4.413059 12.697792
Ti 2.609417 2.753601 10.389103
Ti 0.276175 4.413059 17.315171
Ti 2.609417 2.753601 15.006482
Ti -0.697714 6.877045 8.080413
Ti 1.635528 5.217586 5.771724
Ti -0.697714 6.877045 12.697792
Ti 1.635528 5.217586 10.389103
Ti -0.697714 6.877045 17.315171
Ti 1.635528 5.217586 15.006482
Ti 4.153693 1.836427 12.697792
Ti 6.486935 0.176968 10.389103
Ti 4.153693 1.836427 17.315171
Ti 6.486935 0.176968 15.006482
Ti 4.153693 1.836427 21.932550
Ti 6.486935 0.176968 19.623861
Ti 3.179804 4.300412 12.697792
Ti 5.513046 2.640953 10.389103
Ti 3.179804 4.300412 17.315171
Ti 5.513046 2.640953 15.006482
Ti 3.179804 4.300412 21.932550
Ti 5.513046 2.640953 19.623861
Ti 2.205915 6.764397 12.697792
Ti 4.539157 5.104939 10.389103
Ti 2.205915 6.764397 17.315171
Ti 4.539157 5.104939 15.006482
Ti 2.205915 6.764397 21.932550
Ti 4.539157 5.104939 19.623861
