54
A
Ti 1.474239 1.746185 3.456075
Ti 0.658888 0.424539 1.152025
Ti 1.474239 1.746185 8.064175
Ti 0.658888 0.424539 5.760125
Ti 1.474239 1.746185 12.672275
Ti 0.658888 0.424539 10.368225
Ti 0.827987 4.442597 -1.152025
Ti 0.012636 3.120951 -3.456075
Ti 0.827987 4.442597 3.456075
Ti 0.012636 3.120951 1.152025
Ti 0.827987 4.442597 8.064175
Ti 0.012636 3.120951 5.760125
Ti 0.181735 7.139009 -5.760125
Ti -0.633616 5.817363 -8.064175
Ti 0.181735 7.139009 -1.152025
Ti -0.633616 5.817363 -3.456075
Ti 0.181735 7.139009 3.456075
Ti -0.633616 5.817363 1.152025
Ti 4.253619 1.220496 8.064175
Ti 3.438268 -0.101151 5.760125
Ti 4.253619 1.220496 12.672275
Ti 3.438268 -0.101151 10.368225
Ti 4.253619 1.220496 17.280375
Ti 3.438268 -0.101151 14.976325
Ti 3.607367 3.916908 3.456075
Ti 2.792016 2.595262 1.152025
Ti 3.607367 3.916908 8.064175
Ti 2.792016 2.595262 5.760125
Ti 3.607367 3.916908 12.672275
Ti 2.792016 2.595262 10.368225
Ti 2.961115 6.613320 -1.152025
Ti 2.145764 5.291674 -3.456075
Ti 2.961115 6.613320 3.456075
Ti 2.145764 5.291674 1.152025
Ti 2.961115 6.613320 8.064175
Ti 2.145764 5.291674 5.760125
Ti 7.032999 0.694806 12.672275
Ti 6.217648 -0.626840 10.368225
Ti 7.032999 0.694806 17.280375
Ti 6.217648 -0.626840 14.976325
Ti 7.032999 0.694806 21.888475
Ti 6.217648 -0.626840 19.584425
Ti 6.386747 3.391219 8.064175
Ti 5.571396 2.069573 5.760125
Ti 6.386747 3.391219 12.672275
Ti 5.571396 2.069573 10.368225
Ti 6.386747 3.391219 17.280375
Ti 5.571396 2.069573 14.976325
Ti 5.740495 6.087631 3.456075
Ti 4.925143 4.765985 1.152025
Ti 5.740495 6.087631 8.064175
Ti 4.925143 4.765985 5.760125
Ti 5.740495 6.087631 12.672275
Ti 4.925143 4.765985 10.368225
