54
A
Ti 0.459648 1.746954 3.455284
Ti 0.587167 0.390444 1.151761
Ti 0.459648 1.746954 8.062330
Ti 0.587167 0.390444 5.758807
Ti 0.459648 1.746954 12.669375
Ti 0.587167 0.390444 10.365853
Ti 1.506463 3.884352 3.455284
Ti 1.633982 2.527842 1.151761
Ti 1.506463 3.884352 8.062330
Ti 1.633982 2.527842 5.758807
Ti 1.506463 3.884352 12.669375
Ti 1.633982 2.527842 10.365853
Ti 2.553279 6.021750 3.455284
Ti 2.680797 4.665239 1.151761
Ti 2.553279 6.021750 8.062330
Ti 2.680797 4.665239 5.758807
Ti 2.553279 6.021750 12.669375
Ti 2.680797 4.665239 10.365853
Ti 3.224909 1.174329 8.062330
Ti 3.352427 -0.182182 5.758807
Ti 3.224909 1.174329 12.669375
Ti 3.352427 -0.182182 10.365853
Ti 3.224909 1.174329 17.276421
Ti 3.352427 -0.182182 14.972898
Ti 4.271724 3.311726 8.062330
Ti 4.399243 1.955216 5.758807
Ti 4.271724 3.311726 12.669375
Ti 4.399243 1.955216 10.365853
Ti 4.271724 3.311726 17.276421
Ti 4.399243 1.955216 14.972898
Ti 5.318539 5.449124 8.062330
Ti 5.446058 4.092614 5.758807
Ti 5.318539 5.449124 12.669375
Ti 5.446058 4.092614 10.365853
Ti 5.318539 5.449124 17.276421
Ti 5.446058 4.092614 14.972898
Ti 5.990170 0.601703 12.669375
Ti 6.117688 -0.754807 10.365853
Ti 5.990170 0.601703 17.276421
Ti 6.117688 -0.754807 14.972898
Ti 5.990170 0.601703 21.883467
Ti 6.117688 -0.754807 19.579944
Ti 7.036985 2.739101 12.669375
Ti 7.164503 1.382590 10.365853
Ti 7.036985 2.739101 17.276421
Ti 7.164503 1.382590 14.972898
Ti 7.036985 2.739101 21.883467
Ti 7.164503 1.382590 19.579944
Ti 8.083800 4.876499 12.669375
Ti 8.211318 3.519988 10.365853
Ti 8.083800 4.876499 17.276421
Ti 8.211318 3.519988 14.972898
Ti 8.083800 4.876499 21.883467
Ti 8.211318 3.519988 19.579944
