54
A
Ti -1.028339 1.984399 3.460820
Ti 0.631794 0.386275 1.153607
Ti -1.028339 1.984399 8.075247
Ti 0.631794 0.386275 5.768033
Ti -1.028339 1.984399 12.689673
Ti 0.631794 0.386275 10.382460
Ti -1.424884 4.355074 3.460820
Ti 0.235249 2.756950 1.153607
Ti -1.424884 4.355074 8.075247
Ti 0.235249 2.756950 5.768033
Ti -1.424884 4.355074 12.689673
Ti 0.235249 2.756950 10.382460
Ti -1.821429 6.725748 3.460820
Ti -0.161296 5.127624 1.153607
Ti -1.821429 6.725748 8.075247
Ti -0.161296 5.127624 5.768033
Ti -1.821429 6.725748 12.689673
Ti -0.161296 5.127624 10.382460
Ti 1.835756 1.740329 8.075247
Ti 3.495889 0.142205 5.768033
Ti 1.835756 1.740329 12.689673
Ti 3.495889 0.142205 10.382460
Ti 1.835756 1.740329 17.304100
Ti 3.495889 0.142205 14.996886
Ti 1.439211 4.111004 8.075247
Ti 3.099345 2.512880 5.768033
Ti 1.439211 4.111004 12.689673
Ti 3.099345 2.512880 10.382460
Ti 1.439211 4.111004 17.304100
Ti 3.099345 2.512880 14.996886
Ti 1.042666 6.481679 8.075247
Ti 2.702800 4.883555 5.768033
Ti 1.042666 6.481679 12.689673
Ti 2.702800 4.883555 10.382460
Ti 1.042666 6.481679 17.304100
Ti 2.702800 4.883555 14.996886
Ti 4.699852 1.496259 12.689673
Ti 6.359985 -0.101865 10.382460
Ti 4.699852 1.496259 17.304100
Ti 6.359985 -0.101865 14.996886
Ti 4.699852 1.496259 21.918526
Ti 6.359985 -0.101865 19.611313
Ti 4.303307 3.866934 12.689673
Ti 5.963440 2.268810 10.382460
Ti 4.303307 3.866934 17.304100
Ti 5.963440 2.268810 14.996886
Ti 4.303307 3.866934 21.918526
Ti 5.963440 2.268810 19.611313
Ti 3.906762 6.237609 12.689673
Ti 5.566895 4.639485 10.382460
Ti 3.906762 6.237609 17.304100
Ti 5.566895 4.639485 14.996886
Ti 3.906762 6.237609 21.918526
Ti 5.566895 4.639485 19.611313
