54
A
Ti 1.855922 1.504177 3.451014
Ti 0.656844 0.453265 1.150338
Ti 1.855922 1.504177 8.052365
Ti 0.656844 0.453265 5.751690
Ti 1.855922 1.504177 12.653717
Ti 0.656844 0.453265 10.353041
Ti 1.679671 4.287701 -1.150338
Ti 0.480594 3.236789 -3.451014
Ti 1.679671 4.287701 3.451014
Ti 0.480594 3.236789 1.150338
Ti 1.679671 4.287701 8.052365
Ti 0.480594 3.236789 5.751690
Ti 1.503421 7.071225 -5.751690
Ti 0.304343 6.020313 -8.052365
Ti 1.503421 7.071225 -1.150338
Ti 0.304343 6.020313 -3.451014
Ti 1.503421 7.071225 3.451014
Ti 0.304343 6.020313 1.150338
Ti 4.544939 0.678094 8.052365
Ti 3.345861 -0.372818 5.751690
Ti 4.544939 0.678094 12.653717
Ti 3.345861 -0.372818 10.353041
Ti 4.544939 0.678094 17.255069
Ti 3.345861 -0.372818 14.954393
Ti 4.368688 3.461618 3.451014
Ti 3.169610 2.410706 1.150338
Ti 4.368688 3.461618 8.052365
Ti 3.169610 2.410706 5.751690
Ti 4.368688 3.461618 12.653717
Ti 3.169610 2.410706 10.353041
Ti 4.192437 6.245142 -1.150338
Ti 2.993360 5.194230 -3.451014
Ti 4.192437 6.245142 3.451014
Ti 2.993360 5.194230 1.150338
Ti 4.192437 6.245142 8.052365
Ti 2.993360 5.194230 5.751690
Ti 7.233955 -0.147989 12.653717
Ti 6.034878 -1.198901 10.353041
Ti 7.233955 -0.147989 17.255069
Ti 6.034878 -1.198901 14.954393
Ti 7.233955 -0.147989 21.856421
Ti 6.034878 -1.198901 19.555745
Ti 7.057705 2.635535 8.052365
Ti 5.858627 1.584623 5.751690
Ti 7.057705 2.635535 12.653717
Ti 5.858627 1.584623 10.353041
Ti 7.057705 2.635535 17.255069
Ti 5.858627 1.584623 14.954393
Ti 6.881454 5.419060 3.451014
Ti 5.682376 4.368148 1.150338
Ti 6.881454 5.419060 8.052365
Ti 5.682376 4.368148 5.751690
Ti 6.881454 5.419060 12.653717
Ti 5.682376 4.368148 10.353041
