54
A
Ti 1.246410 1.873232 3.458922
Ti 0.673171 0.417462 1.152974
Ti 1.246410 1.873232 8.070818
Ti 0.673171 0.417462 5.764870
Ti 1.246410 1.873232 12.682714
Ti 0.673171 0.417462 10.376766
Ti 0.335781 4.520643 -1.152974
Ti -0.237457 3.064874 -3.458922
Ti 0.335781 4.520643 3.458922
Ti -0.237457 3.064874 1.152974
Ti 0.335781 4.520643 8.070818
Ti -0.237457 3.064874 5.764870
Ti -0.574847 7.168055 -5.764870
Ti -1.148085 5.712285 -8.070818
Ti -0.574847 7.168055 -1.152974
Ti -1.148085 5.712285 -3.458922
Ti -0.574847 7.168055 3.458922
Ti -1.148085 5.712285 1.152974
Ti 4.076619 1.516514 8.070818
Ti 3.503381 0.060745 5.764870
Ti 4.076619 1.516514 12.682714
Ti 3.503381 0.060745 10.376766
Ti 4.076619 1.516514 17.294610
Ti 3.503381 0.060745 14.988662
Ti 3.165990 4.163926 3.458922
Ti 2.592752 2.708156 1.152974
Ti 3.165990 4.163926 8.070818
Ti 2.592752 2.708156 5.764870
Ti 3.165990 4.163926 12.682714
Ti 2.592752 2.708156 10.376766
Ti 2.255362 6.811337 -1.152974
Ti 1.682124 5.355568 -3.458922
Ti 2.255362 6.811337 3.458922
Ti 1.682124 5.355568 1.152974
Ti 2.255362 6.811337 8.070818
Ti 1.682124 5.355568 5.764870
Ti 6.906828 1.159797 12.682714
Ti 6.333590 -0.295973 10.376766
Ti 6.906828 1.159797 17.294610
Ti 6.333590 -0.295973 14.988662
Ti 6.906828 1.159797 21.906506
Ti 6.333590 -0.295973 19.600558
Ti 5.996200 3.807208 8.070818
Ti 5.422961 2.351439 5.764870
Ti 5.996200 3.807208 12.682714
Ti 5.422961 2.351439 10.376766
Ti 5.996200 3.807208 17.294610
Ti 5.422961 2.351439 14.988662
Ti 5.085571 6.454620 3.458922
Ti 4.512333 4.998850 1.152974
Ti 5.085571 6.454620 8.070818
Ti 4.512333 4.998850 5.764870
Ti 5.085571 6.454620 12.682714
Ti 4.512333 4.998850 10.376766
