54
A
Ti 0.500586 1.739243 3.455126
Ti 0.587468 0.391489 1.151709
Ti 0.500586 1.739243 8.061961
Ti 0.587468 0.391489 5.758543
Ti 0.500586 1.739243 12.668795
Ti 0.587468 0.391489 10.365378
Ti 1.588640 3.869976 3.455126
Ti 1.675522 2.522222 1.151709
Ti 1.588640 3.869976 8.061961
Ti 1.675522 2.522222 5.758543
Ti 1.588640 3.869976 12.668795
Ti 1.675522 2.522222 10.365378
Ti 2.676694 6.000709 3.455126
Ti 2.763576 4.652955 1.151709
Ti 2.676694 6.000709 8.061961
Ti 2.763576 4.652955 5.758543
Ti 2.676694 6.000709 12.668795
Ti 2.763576 4.652955 10.365378
Ti 3.263023 1.157231 8.061961
Ti 3.349905 -0.190524 5.758543
Ti 3.263023 1.157231 12.668795
Ti 3.349905 -0.190524 10.365378
Ti 3.263023 1.157231 17.275630
Ti 3.349905 -0.190524 14.972213
Ti 4.351077 3.287963 8.061961
Ti 4.437959 1.940209 5.758543
Ti 4.351077 3.287963 12.668795
Ti 4.437959 1.940209 10.365378
Ti 4.351077 3.287963 17.275630
Ti 4.437959 1.940209 14.972213
Ti 5.439131 5.418696 8.061961
Ti 5.526013 4.070942 5.758543
Ti 5.439131 5.418696 12.668795
Ti 5.526013 4.070942 10.365378
Ti 5.439131 5.418696 17.275630
Ti 5.526013 4.070942 14.972213
Ti 6.025460 0.575218 12.668795
Ti 6.112341 -0.772536 10.365378
Ti 6.025460 0.575218 17.275630
Ti 6.112341 -0.772536 14.972213
Ti 6.025460 0.575218 21.882465
Ti 6.112341 -0.772536 19.579048
Ti 7.113514 2.705950 12.668795
Ti 7.200395 1.358196 10.365378
Ti 7.113514 2.705950 17.275630
Ti 7.200395 1.358196 14.972213
Ti 7.113514 2.705950 21.882465
Ti 7.200395 1.358196 19.579048
Ti 8.201568 4.836683 12.668795
Ti 8.288449 3.488929 10.365378
Ti 8.201568 4.836683 17.275630
Ti 8.288449 3.488929 14.972213
Ti 8.201568 4.836683 21.882465
Ti 8.288449 3.488929 19.579048
