54
A
Ti 1.417993 1.547691 3.451488
Ti 0.618555 0.429746 1.150496
Ti 1.417993 1.547691 8.053473
Ti 0.618555 0.429746 5.752480
Ti 1.417993 1.547691 12.655457
Ti 0.618555 0.429746 10.354465
Ti 3.454540 3.525128 3.451488
Ti 2.655103 2.407182 1.150496
Ti 3.454540 3.525128 8.053473
Ti 2.655103 2.407182 5.752480
Ti 3.454540 3.525128 12.655457
Ti 2.655103 2.407182 10.354465
Ti 5.491088 5.502564 3.451488
Ti 4.691650 4.384619 1.150496
Ti 5.491088 5.502564 8.053473
Ti 4.691650 4.384619 5.752480
Ti 5.491088 5.502564 12.655457
Ti 4.691650 4.384619 10.354465
Ti 4.115481 0.749770 8.053473
Ti 3.316043 -0.368175 5.752480
Ti 4.115481 0.749770 12.655457
Ti 3.316043 -0.368175 10.354465
Ti 4.115481 0.749770 17.257441
Ti 3.316043 -0.368175 14.956449
Ti 6.152029 2.727207 8.053473
Ti 5.352591 1.609261 5.752480
Ti 6.152029 2.727207 12.655457
Ti 5.352591 1.609261 10.354465
Ti 6.152029 2.727207 17.257441
Ti 5.352591 1.609261 14.956449
Ti 8.188577 4.704643 8.053473
Ti 7.389139 3.586698 5.752480
Ti 8.188577 4.704643 12.655457
Ti 7.389139 3.586698 10.354465
Ti 8.188577 4.704643 17.257441
Ti 7.389139 3.586698 14.956449
Ti 6.812969 -0.048151 12.655457
Ti 6.013532 -1.166096 10.354465
Ti 6.812969 -0.048151 17.257441
Ti 6.013532 -1.166096 14.956449
Ti 6.812969 -0.048151 21.859426
Ti 6.013532 -1.166096 19.558433
Ti 8.849517 1.929286 12.655457
Ti 8.050079 0.811340 10.354465
Ti 8.849517 1.929286 17.257441
Ti 8.050079 0.811340 14.956449
Ti 8.849517 1.929286 21.859426
Ti 8.050079 0.811340 19.558433
Ti 10.886065 3.906723 12.655457
Ti 10.086627 2.788777 10.354465
Ti 10.886065 3.906723 17.257441
Ti 10.086627 2.788777 14.956449
Ti 10.886065 3.906723 21.859426
Ti 10.086627 2.788777 19.558433
