54
A
Ti 0.845680 2.070446 3.463667
Ti 0.717990 0.420200 1.154556
Ti 0.845680 2.070446 8.081889
Ti 0.717990 0.420200 5.772778
Ti 0.845680 2.070446 12.700112
Ti 0.717990 0.420200 10.391001
Ti -0.505575 4.636190 -1.154556
Ti -0.633265 2.985944 -3.463667
Ti -0.505575 4.636190 3.463667
Ti -0.633265 2.985944 1.154556
Ti -0.505575 4.636190 8.081889
Ti -0.633265 2.985944 5.772778
Ti -1.856830 7.201934 -5.772778
Ti -1.984520 5.551688 -8.081889
Ti -1.856830 7.201934 -1.154556
Ti -1.984520 5.551688 -3.463667
Ti -1.856830 7.201934 3.463667
Ti -1.984520 5.551688 1.154556
Ti 3.760604 1.995347 8.081889
Ti 3.632915 0.345101 5.772778
Ti 3.760604 1.995347 12.700112
Ti 3.632915 0.345101 10.391001
Ti 3.760604 1.995347 17.318334
Ti 3.632915 0.345101 15.009223
Ti 2.409350 4.561091 3.463667
Ti 2.281660 2.910845 1.154556
Ti 2.409350 4.561091 8.081889
Ti 2.281660 2.910845 5.772778
Ti 2.409350 4.561091 12.700112
Ti 2.281660 2.910845 10.391001
Ti 1.058095 7.126835 -1.154556
Ti 0.930405 5.476589 -3.463667
Ti 1.058095 7.126835 3.463667
Ti 0.930405 5.476589 1.154556
Ti 1.058095 7.126835 8.081889
Ti 0.930405 5.476589 5.772778
Ti 6.675529 1.920249 12.700112
Ti 6.547839 0.270003 10.391001
Ti 6.675529 1.920249 17.318334
Ti 6.547839 0.270003 15.009223
Ti 6.675529 1.920249 21.936557
Ti 6.547839 0.270003 19.627446
Ti 5.324274 4.485993 8.081889
Ti 5.196584 2.835747 5.772778
Ti 5.324274 4.485993 12.700112
Ti 5.196584 2.835747 10.391001
Ti 5.324274 4.485993 17.318334
Ti 5.196584 2.835747 15.009223
Ti 3.973019 7.051737 3.463667
Ti 3.845330 5.401491 1.154556
Ti 3.973019 7.051737 8.081889
Ti 3.845330 5.401491 5.772778
Ti 3.973019 7.051737 12.700112
Ti 3.845330 5.401491 10.391001
