54
A
Ti 1.486619 1.738935 3.455917
Ti 0.658372 0.425123 1.151972
Ti 1.486619 1.738935 8.063806
Ti 0.658372 0.425123 5.759861
Ti 1.486619 1.738935 12.671695
Ti 0.658372 0.425123 10.367751
Ti 0.855055 4.438069 -1.151972
Ti 0.026807 3.124258 -3.455917
Ti 0.855055 4.438069 3.455917
Ti 0.026807 3.124258 1.151972
Ti 0.855055 4.438069 8.063806
Ti 0.026807 3.124258 5.759861
Ti 0.223490 7.137203 -5.759861
Ti -0.604757 5.823392 -8.063806
Ti 0.223490 7.137203 -1.151972
Ti -0.604757 5.823392 -3.455917
Ti 0.223490 7.137203 3.455917
Ti -0.604757 5.823392 1.151972
Ti 4.263175 1.203858 8.063806
Ti 3.434928 -0.109953 5.759861
Ti 4.263175 1.203858 12.671695
Ti 3.434928 -0.109953 10.367751
Ti 4.263175 1.203858 17.279584
Ti 3.434928 -0.109953 14.975640
Ti 3.631611 3.902993 3.455917
Ti 2.803363 2.589181 1.151972
Ti 3.631611 3.902993 8.063806
Ti 2.803363 2.589181 5.759861
Ti 3.631611 3.902993 12.671695
Ti 2.803363 2.589181 10.367751
Ti 3.000046 6.602127 -1.151972
Ti 2.171799 5.288316 -3.455917
Ti 3.000046 6.602127 3.455917
Ti 2.171799 5.288316 1.151972
Ti 3.000046 6.602127 8.063806
Ti 2.171799 5.288316 5.759861
Ti 7.039731 0.668782 12.671695
Ti 6.211484 -0.645029 10.367751
Ti 7.039731 0.668782 17.279584
Ti 6.211484 -0.645029 14.975640
Ti 7.039731 0.668782 21.887473
Ti 6.211484 -0.645029 19.583529
Ti 6.408167 3.367916 8.063806
Ti 5.579919 2.054105 5.759861
Ti 6.408167 3.367916 12.671695
Ti 5.579919 2.054105 10.367751
Ti 6.408167 3.367916 17.279584
Ti 5.579919 2.054105 14.975640
Ti 5.776602 6.067051 3.455917
Ti 4.948355 4.753239 1.151972
Ti 5.776602 6.067051 8.063806
Ti 4.948355 4.753239 5.759861
Ti 5.776602 6.067051 12.671695
Ti 4.948355 4.753239 10.367751
