54
A
Ti 1.832942 1.519908 3.451330
Ti 0.656096 0.450864 1.150443
Ti 1.832942 1.519908 8.053104
Ti 0.656096 0.450864 5.752217
Ti 1.832942 1.519908 12.654877
Ti 0.656096 0.450864 10.353990
Ti 1.627317 4.297987 -1.150443
Ti 0.450471 3.228944 -3.451330
Ti 1.627317 4.297987 3.451330
Ti 0.450471 3.228944 1.150443
Ti 1.627317 4.297987 8.053104
Ti 0.450471 3.228944 5.752217
Ti 1.421691 7.076067 -5.752217
Ti 0.244845 6.007023 -8.053104
Ti 1.421691 7.076067 -1.150443
Ti 0.244845 6.007023 -3.451330
Ti 1.421691 7.076067 3.451330
Ti 0.244845 6.007023 1.150443
Ti 4.527607 0.712600 8.053104
Ti 3.350761 -0.356444 5.752217
Ti 4.527607 0.712600 12.654877
Ti 3.350761 -0.356444 10.353990
Ti 4.527607 0.712600 17.256650
Ti 3.350761 -0.356444 14.955764
Ti 4.321981 3.490679 3.451330
Ti 3.145135 2.421635 1.150443
Ti 4.321981 3.490679 8.053104
Ti 3.145135 2.421635 5.752217
Ti 4.321981 3.490679 12.654877
Ti 3.145135 2.421635 10.353990
Ti 4.116355 6.268759 -1.150443
Ti 2.939509 5.199715 -3.451330
Ti 4.116355 6.268759 3.451330
Ti 2.939509 5.199715 1.150443
Ti 4.116355 6.268759 8.053104
Ti 2.939509 5.199715 5.752217
Ti 7.222271 -0.094709 12.654877
Ti 6.045425 -1.163752 10.353990
Ti 7.222271 -0.094709 17.256650
Ti 6.045425 -1.163752 14.955764
Ti 7.222271 -0.094709 21.858424
Ti 6.045425 -1.163752 19.557537
Ti 7.016645 2.683371 8.053104
Ti 5.839800 1.614327 5.752217
Ti 7.016645 2.683371 12.654877
Ti 5.839800 1.614327 10.353990
Ti 7.016645 2.683371 17.256650
Ti 5.839800 1.614327 14.955764
Ti 6.811020 5.461451 3.451330
Ti 5.634174 4.392407 1.150443
Ti 6.811020 5.461451 8.053104
Ti 5.634174 4.392407 5.752217
Ti 6.811020 5.461451 12.654877
Ti 5.634174 4.392407 10.353990
