54
A
Ti 1.089270 1.954297 3.460820
Ti 0.687947 0.416377 1.153607
Ti 1.089270 1.954297 8.075247
Ti 0.687947 0.416377 5.768033
Ti 1.089270 1.954297 12.689673
Ti 0.687947 0.416377 10.382460
Ti 0.002391 4.569042 -1.153607
Ti -0.398932 3.031122 -3.460820
Ti 0.002391 4.569042 3.460820
Ti -0.398932 3.031122 1.153607
Ti 0.002391 4.569042 8.075247
Ti -0.398932 3.031122 5.768033
Ti -1.084488 7.183786 -5.768033
Ti -1.485811 5.645866 -8.075247
Ti -1.084488 7.183786 -1.153607
Ti -1.485811 5.645866 -3.460820
Ti -1.084488 7.183786 3.460820
Ti -1.485811 5.645866 1.153607
Ti 3.953365 1.710227 8.075247
Ti 3.552042 0.172308 5.768033
Ti 3.953365 1.710227 12.689673
Ti 3.552042 0.172308 10.382460
Ti 3.953365 1.710227 17.304100
Ti 3.552042 0.172308 14.996886
Ti 2.866486 4.324972 3.460820
Ti 2.465163 2.787052 1.153607
Ti 2.866486 4.324972 8.075247
Ti 2.465163 2.787052 5.768033
Ti 2.866486 4.324972 12.689673
Ti 2.465163 2.787052 10.382460
Ti 1.779607 6.939716 -1.153607
Ti 1.378284 5.401797 -3.460820
Ti 1.779607 6.939716 3.460820
Ti 1.378284 5.401797 1.153607
Ti 1.779607 6.939716 8.075247
Ti 1.378284 5.401797 5.768033
Ti 6.817460 1.466157 12.689673
Ti 6.416137 -0.071762 10.382460
Ti 6.817460 1.466157 17.304100
Ti 6.416137 -0.071762 14.996886
Ti 6.817460 1.466157 21.918526
Ti 6.416137 -0.071762 19.611313
Ti 5.730581 4.080902 8.075247
Ti 5.329259 2.542982 5.768033
Ti 5.730581 4.080902 12.689673
Ti 5.329259 2.542982 10.382460
Ti 5.730581 4.080902 17.304100
Ti 5.329259 2.542982 14.996886
Ti 4.643703 6.695646 3.460820
Ti 4.242380 5.157727 1.153607
Ti 4.643703 6.695646 8.075247
Ti 4.242380 5.157727 5.768033
Ti 4.643703 6.695646 12.689673
Ti 4.242380 5.157727 10.382460
