54
A
Ti 1.890172 1.480429 3.450539
Ti 0.658185 0.457017 1.150180
Ti 1.890172 1.480429 8.051258
Ti 0.658185 0.457017 5.750899
Ti 1.890172 1.480429 12.651977
Ti 0.658185 0.457017 10.351618
Ti 1.757984 4.272120 -1.150180
Ti 0.525997 3.248708 -3.450539
Ti 1.757984 4.272120 3.450539
Ti 0.525997 3.248708 1.150180
Ti 1.757984 4.272120 8.051258
Ti 0.525997 3.248708 5.750899
Ti 1.625796 7.063811 -5.750899
Ti 0.393809 6.040399 -8.051258
Ti 1.625796 7.063811 -1.150180
Ti 0.393809 6.040399 -3.450539
Ti 1.625796 7.063811 3.450539
Ti 0.393809 6.040399 1.150180
Ti 4.570718 0.626184 8.051258
Ti 3.338730 -0.397227 5.750899
Ti 4.570718 0.626184 12.651977
Ti 3.338730 -0.397227 10.351618
Ti 4.570718 0.626184 17.252696
Ti 3.338730 -0.397227 14.952337
Ti 4.438530 3.417875 3.450539
Ti 3.206542 2.394464 1.150180
Ti 4.438530 3.417875 8.051258
Ti 3.206542 2.394464 5.750899
Ti 4.438530 3.417875 12.651977
Ti 3.206542 2.394464 10.351618
Ti 4.306342 6.209566 -1.150180
Ti 3.074354 5.186155 -3.450539
Ti 4.306342 6.209566 3.450539
Ti 3.074354 5.186155 1.150180
Ti 4.306342 6.209566 8.051258
Ti 3.074354 5.186155 5.750899
Ti 7.251263 -0.228060 12.651977
Ti 6.019275 -1.251472 10.351618
Ti 7.251263 -0.228060 17.252696
Ti 6.019275 -1.251472 14.952337
Ti 7.251263 -0.228060 21.853415
Ti 6.019275 -1.251472 19.553056
Ti 7.119075 2.563631 8.051258
Ti 5.887087 1.540219 5.750899
Ti 7.119075 2.563631 12.651977
Ti 5.887087 1.540219 10.351618
Ti 7.119075 2.563631 17.252696
Ti 5.887087 1.540219 14.952337
Ti 6.986887 5.355322 3.450539
Ti 5.754899 4.331910 1.150180
Ti 6.986887 5.355322 8.051258
Ti 5.754899 4.331910 5.750899
Ti 6.986887 5.355322 12.651977
Ti 5.754899 4.331910 10.351618
