54
A
Ti -0.722161 1.941955 3.459713
Ti 0.614288 0.382065 1.153238
Ti -0.722161 1.941955 8.072663
Ti 0.614288 0.382065 5.766188
Ti -0.722161 1.941955 12.685614
Ti 0.614288 0.382065 10.379138
Ti -0.830034 4.265974 3.459713
Ti 0.506415 2.706084 1.153238
Ti -0.830034 4.265974 8.072663
Ti 0.506415 2.706084 5.766188
Ti -0.830034 4.265974 12.685614
Ti 0.506415 2.706084 10.379138
Ti -0.937907 6.589993 3.459713
Ti 0.398542 5.030103 1.153238
Ti -0.937907 6.589993 8.072663
Ti 0.398542 5.030103 5.766188
Ti -0.937907 6.589993 12.685614
Ti 0.398542 5.030103 10.379138
Ti 2.122167 1.632174 8.072663
Ti 3.458617 0.072284 5.766188
Ti 2.122167 1.632174 12.685614
Ti 3.458617 0.072284 10.379138
Ti 2.122167 1.632174 17.298564
Ti 3.458617 0.072284 14.992089
Ti 2.014294 3.956193 8.072663
Ti 3.350744 2.396303 5.766188
Ti 2.014294 3.956193 12.685614
Ti 3.350744 2.396303 10.379138
Ti 2.014294 3.956193 17.298564
Ti 3.350744 2.396303 14.992089
Ti 1.906422 6.280212 8.072663
Ti 3.242871 4.720322 5.766188
Ti 1.906422 6.280212 12.685614
Ti 3.242871 4.720322 10.379138
Ti 1.906422 6.280212 17.298564
Ti 3.242871 4.720322 14.992089
Ti 4.966496 1.322393 12.685614
Ti 6.302945 -0.237498 10.379138
Ti 4.966496 1.322393 17.298564
Ti 6.302945 -0.237498 14.992089
Ti 4.966496 1.322393 21.911514
Ti 6.302945 -0.237498 19.605039
Ti 4.858623 3.646412 12.685614
Ti 6.195072 2.086522 10.379138
Ti 4.858623 3.646412 17.298564
Ti 6.195072 2.086522 14.992089
Ti 4.858623 3.646412 21.911514
Ti 6.195072 2.086522 19.605039
Ti 4.750750 5.970431 12.685614
Ti 6.087199 4.410541 10.379138
Ti 4.750750 5.970431 17.298564
Ti 6.087199 4.410541 14.992089
Ti 4.750750 5.970431 21.911514
Ti 6.087199 4.410541 19.605039
