54
A
Ti 1.143685 1.608872 3.452595
Ti 0.604190 0.415220 1.150865
Ti 1.143685 1.608872 8.056056
Ti 0.604190 0.415220 5.754326
Ti 1.143685 1.608872 12.659517
Ti 0.604190 0.415220 10.357786
Ti 2.891561 3.632964 3.452595
Ti 2.352066 2.439312 1.150865
Ti 2.891561 3.632964 8.056056
Ti 2.352066 2.439312 5.754326
Ti 2.891561 3.632964 12.659517
Ti 2.352066 2.439312 10.357786
Ti 4.639437 5.657056 3.452595
Ti 4.099942 4.463404 1.150865
Ti 4.639437 5.657056 8.056056
Ti 4.099942 4.463404 5.754326
Ti 4.639437 5.657056 12.659517
Ti 4.099942 4.463404 10.357786
Ti 3.860940 0.876662 8.056056
Ti 3.321446 -0.316990 5.754326
Ti 3.860940 0.876662 12.659517
Ti 3.321446 -0.316990 10.357786
Ti 3.860940 0.876662 17.262977
Ti 3.321446 -0.316990 14.961247
Ti 5.608816 2.900754 8.056056
Ti 5.069321 1.707102 5.754326
Ti 5.608816 2.900754 12.659517
Ti 5.069321 1.707102 10.357786
Ti 5.608816 2.900754 17.262977
Ti 5.069321 1.707102 14.961247
Ti 7.356692 4.924846 8.056056
Ti 6.817197 3.731194 5.754326
Ti 7.356692 4.924846 12.659517
Ti 6.817197 3.731194 10.357786
Ti 7.356692 4.924846 17.262977
Ti 6.817197 3.731194 14.961247
Ti 6.578196 0.144453 12.659517
Ti 6.038701 -1.049200 10.357786
Ti 6.578196 0.144453 17.262977
Ti 6.038701 -1.049200 14.961247
Ti 6.578196 0.144453 21.866438
Ti 6.038701 -1.049200 19.564707
Ti 8.326071 2.168545 12.659517
Ti 7.786577 0.974892 10.357786
Ti 8.326071 2.168545 17.262977
Ti 7.786577 0.974892 14.961247
Ti 8.326071 2.168545 21.866438
Ti 7.786577 0.974892 19.564707
Ti 10.073947 4.192637 12.659517
Ti 9.534452 2.998984 10.357786
Ti 10.073947 4.192637 17.262977
Ti 9.534452 2.998984 14.961247
Ti 10.073947 4.192637 21.866438
Ti 9.534452 2.998984 19.564707
