54
A
Ti -2.018543 2.101376 3.464300
Ti 0.714743 0.415929 1.154767
Ti -2.018543 2.101376 8.083366
Ti 0.714743 0.415929 5.773833
Ti -2.018543 2.101376 12.702432
Ti 0.714743 0.415929 10.392899
Ti -3.322343 4.618682 3.464300
Ti -0.589056 2.933235 1.154767
Ti -3.322343 4.618682 8.083366
Ti -0.589056 2.933235 5.773833
Ti -3.322343 4.618682 12.702432
Ti -0.589056 2.933235 10.392899
Ti -4.626143 7.135988 3.464300
Ti -1.892856 5.450541 1.154767
Ti -4.626143 7.135988 8.083366
Ti -1.892856 5.450541 5.773833
Ti -4.626143 7.135988 12.702432
Ti -1.892856 5.450541 10.392899
Ti 0.907677 2.063827 8.083366
Ti 3.640963 0.378380 5.773833
Ti 0.907677 2.063827 12.702432
Ti 3.640963 0.378380 10.392899
Ti 0.907677 2.063827 17.321498
Ti 3.640963 0.378380 15.011965
Ti -0.396123 4.581133 8.083366
Ti 2.337163 2.895686 5.773833
Ti -0.396123 4.581133 12.702432
Ti 2.337163 2.895686 10.392899
Ti -0.396123 4.581133 17.321498
Ti 2.337163 2.895686 15.011965
Ti -1.699923 7.098439 8.083366
Ti 1.033364 5.412991 5.773833
Ti -1.699923 7.098439 12.702432
Ti 1.033364 5.412991 10.392899
Ti -1.699923 7.098439 17.321498
Ti 1.033364 5.412991 15.011965
Ti 3.833897 2.026278 12.702432
Ti 6.567183 0.340831 10.392899
Ti 3.833897 2.026278 17.321498
Ti 6.567183 0.340831 15.011965
Ti 3.833897 2.026278 21.940564
Ti 6.567183 0.340831 19.631031
Ti 2.530097 4.543584 12.702432
Ti 5.263383 2.858136 10.392899
Ti 2.530097 4.543584 17.321498
Ti 5.263383 2.858136 15.011965
Ti 2.530097 4.543584 21.940564
Ti 5.263383 2.858136 19.631031
Ti 1.226297 7.060889 12.702432
Ti 3.959584 5.375442 10.392899
Ti 1.226297 7.060889 17.321498
Ti 3.959584 5.375442 15.011965
Ti 1.226297 7.060889 21.940564
Ti 3.959584 5.375442 19.631031
