54
A
Ti 1.680729 1.620191 3.453386
Ti 0.654081 0.437226 1.151129
Ti 1.680729 1.620191 8.057901
Ti 0.654081 0.437226 5.755644
Ti 1.680729 1.620191 12.662416
Ti 0.654081 0.437226 10.360159
Ti 1.284165 4.362882 -1.151129
Ti 0.257517 3.179916 -3.453386
Ti 1.284165 4.362882 3.453386
Ti 0.257517 3.179916 1.151129
Ti 1.284165 4.362882 8.057901
Ti 0.257517 3.179916 5.755644
Ti 0.887602 7.105572 -5.755644
Ti -0.139047 5.922607 -8.057901
Ti 0.887602 7.105572 -1.151129
Ti -0.139047 5.922607 -3.453386
Ti 0.887602 7.105572 3.453386
Ti -0.139047 5.922607 1.151129
Ti 4.412104 0.934918 8.057901
Ti 3.385456 -0.248047 5.755644
Ti 4.412104 0.934918 12.662416
Ti 3.385456 -0.248047 10.360159
Ti 4.412104 0.934918 17.266931
Ti 3.385456 -0.248047 14.964674
Ti 4.015540 3.677608 3.453386
Ti 2.988892 2.494643 1.151129
Ti 4.015540 3.677608 8.057901
Ti 2.988892 2.494643 5.755644
Ti 4.015540 3.677608 12.662416
Ti 2.988892 2.494643 10.360159
Ti 3.618976 6.420299 -1.151129
Ti 2.592328 5.237334 -3.453386
Ti 3.618976 6.420299 3.453386
Ti 2.592328 5.237334 1.151129
Ti 3.618976 6.420299 8.057901
Ti 2.592328 5.237334 5.755644
Ti 7.143478 0.249645 12.662416
Ti 6.116830 -0.933320 10.360159
Ti 7.143478 0.249645 17.266931
Ti 6.116830 -0.933320 14.964674
Ti 7.143478 0.249645 21.871446
Ti 6.116830 -0.933320 19.569189
Ti 6.746914 2.992335 8.057901
Ti 5.720266 1.809370 5.755644
Ti 6.746914 2.992335 12.662416
Ti 5.720266 1.809370 10.360159
Ti 6.746914 2.992335 17.266931
Ti 5.720266 1.809370 14.964674
Ti 6.350350 5.735026 3.453386
Ti 5.323702 4.552060 1.151129
Ti 6.350350 5.735026 8.057901
Ti 5.323702 4.552060 5.755644
Ti 6.350350 5.735026 12.662416
Ti 5.323702 4.552060 10.360159
