54
A
Ti 1.411902 1.782131 3.456866
Ti 0.661907 0.421917 1.152289
Ti 1.411902 1.782131 8.066020
Ti 0.661907 0.421917 5.761443
Ti 1.411902 1.782131 12.675175
Ti 0.661907 0.421917 10.370598
Ti 0.692212 4.464932 -1.152289
Ti -0.057783 3.104718 -3.456866
Ti 0.692212 4.464932 3.456866
Ti -0.057783 3.104718 1.152289
Ti 0.692212 4.464932 8.066020
Ti -0.057783 3.104718 5.761443
Ti -0.027478 7.147733 -5.761443
Ti -0.777473 5.787519 -8.066020
Ti -0.027478 7.147733 -1.152289
Ti -0.777473 5.787519 -3.456866
Ti -0.027478 7.147733 3.456866
Ti -0.777473 5.787519 1.152289
Ti 4.205401 1.303379 8.066020
Ti 3.455406 -0.056836 5.761443
Ti 4.205401 1.303379 12.675175
Ti 3.455406 -0.056836 10.370598
Ti 4.205401 1.303379 17.284329
Ti 3.455406 -0.056836 14.979752
Ti 3.485711 3.986180 3.456866
Ti 2.735716 2.625965 1.152289
Ti 3.485711 3.986180 8.066020
Ti 2.735716 2.625965 5.761443
Ti 3.485711 3.986180 12.675175
Ti 2.735716 2.625965 10.370598
Ti 2.766021 6.668981 -1.152289
Ti 2.016026 5.308766 -3.456866
Ti 2.766021 6.668981 3.456866
Ti 2.016026 5.308766 1.152289
Ti 2.766021 6.668981 8.066020
Ti 2.016026 5.308766 5.761443
Ti 6.998900 0.824626 12.675175
Ti 6.248906 -0.535588 10.370598
Ti 6.998900 0.824626 17.284329
Ti 6.248906 -0.535588 14.979752
Ti 6.998900 0.824626 21.893484
Ti 6.248906 -0.535588 19.588906
Ti 6.279210 3.507427 8.066020
Ti 5.529215 2.147213 5.761443
Ti 6.279210 3.507427 12.675175
Ti 5.529215 2.147213 10.370598
Ti 6.279210 3.507427 17.284329
Ti 5.529215 2.147213 14.979752
Ti 5.559520 6.190228 3.456866
Ti 4.809525 4.830014 1.152289
Ti 5.559520 6.190228 8.066020
Ti 4.809525 4.830014 5.761443
Ti 5.559520 6.190228 12.675175
Ti 4.809525 4.830014 10.370598
