54
A
Ti 1.300958 1.574220 3.451963
Ti 0.611873 0.423211 1.150654
Ti 1.300958 1.574220 8.054580
Ti 0.611873 0.423211 5.753271
Ti 1.300958 1.574220 12.657197
Ti 0.611873 0.423211 10.355888
Ti 3.213789 3.571652 3.451963
Ti 2.524705 2.420643 1.150654
Ti 3.213789 3.571652 8.054580
Ti 2.524705 2.420643 5.753271
Ti 3.213789 3.571652 12.657197
Ti 2.524705 2.420643 10.355888
Ti 5.126620 5.569084 3.451963
Ti 4.437536 4.418075 1.150654
Ti 5.126620 5.569084 8.054580
Ti 4.437536 4.418075 5.753271
Ti 5.126620 5.569084 12.657197
Ti 4.437536 4.418075 10.355888
Ti 4.006918 0.804461 8.054580
Ti 3.317833 -0.346548 5.753271
Ti 4.006918 0.804461 12.657197
Ti 3.317833 -0.346548 10.355888
Ti 4.006918 0.804461 17.259814
Ti 3.317833 -0.346548 14.958505
Ti 5.919749 2.801893 8.054580
Ti 5.230664 1.650884 5.753271
Ti 5.919749 2.801893 12.657197
Ti 5.230664 1.650884 10.355888
Ti 5.919749 2.801893 17.259814
Ti 5.230664 1.650884 14.958505
Ti 7.832580 4.799325 8.054580
Ti 7.143496 3.648316 5.753271
Ti 7.832580 4.799325 12.657197
Ti 7.143496 3.648316 10.355888
Ti 7.832580 4.799325 17.259814
Ti 7.143496 3.648316 14.958505
Ti 6.712877 0.034703 12.657197
Ti 6.023793 -1.116307 10.355888
Ti 6.712877 0.034703 17.259814
Ti 6.023793 -1.116307 14.958505
Ti 6.712877 0.034703 21.862431
Ti 6.023793 -1.116307 19.561122
Ti 8.625709 2.032134 12.657197
Ti 7.936624 0.881125 10.355888
Ti 8.625709 2.032134 17.259814
Ti 7.936624 0.881125 14.958505
Ti 8.625709 2.032134 21.862431
Ti 7.936624 0.881125 19.561122
Ti 10.538540 4.029566 12.657197
Ti 9.849455 2.878557 10.355888
Ti 10.538540 4.029566 17.259814
Ti 9.849455 2.878557 14.958505
Ti 10.538540 4.029566 21.862431
Ti 9.849455 2.878557 19.561122
