54
A
Ti -0.852855 1.960454 3.460187
Ti 0.621265 0.383560 1.153396
Ti -0.852855 1.960454 8.073770
Ti 0.621265 0.383560 5.766979
Ti -0.852855 1.960454 12.687353
Ti 0.621265 0.383560 10.380562
Ti -1.084444 4.304468 3.460187
Ti 0.389676 2.727575 1.153396
Ti -1.084444 4.304468 8.073770
Ti 0.389676 2.727575 5.766979
Ti -1.084444 4.304468 12.687353
Ti 0.389676 2.727575 10.380562
Ti -1.316034 6.648483 3.460187
Ti 0.158086 5.071589 1.153396
Ti -1.316034 6.648483 8.073770
Ti 0.158086 5.071589 5.766979
Ti -1.316034 6.648483 12.687353
Ti 0.158086 5.071589 10.380562
Ti 1.999945 1.678835 8.073770
Ti 3.474065 0.101941 5.766979
Ti 1.999945 1.678835 12.687353
Ti 3.474065 0.101941 10.380562
Ti 1.999945 1.678835 17.300936
Ti 3.474065 0.101941 14.994145
Ti 1.768356 4.022849 8.073770
Ti 3.242476 2.445956 5.766979
Ti 1.768356 4.022849 12.687353
Ti 3.242476 2.445956 10.380562
Ti 1.768356 4.022849 17.300936
Ti 3.242476 2.445956 14.994145
Ti 1.536766 6.366864 8.073770
Ti 3.010886 4.789970 5.766979
Ti 1.536766 6.366864 12.687353
Ti 3.010886 4.789970 10.380562
Ti 1.536766 6.366864 17.300936
Ti 3.010886 4.789970 14.994145
Ti 4.852745 1.397216 12.687353
Ti 6.326865 -0.179678 10.380562
Ti 4.852745 1.397216 17.300936
Ti 6.326865 -0.179678 14.994145
Ti 4.852745 1.397216 21.914519
Ti 6.326865 -0.179678 19.607728
Ti 4.621156 3.741230 12.687353
Ti 6.095276 2.164336 10.380562
Ti 4.621156 3.741230 17.300936
Ti 6.095276 2.164336 14.994145
Ti 4.621156 3.741230 21.914519
Ti 6.095276 2.164336 19.607728
Ti 4.389566 6.085245 12.687353
Ti 5.863686 4.508351 10.380562
Ti 4.389566 6.085245 17.300936
Ti 5.863686 4.508351 14.994145
Ti 4.389566 6.085245 21.914519
Ti 5.863686 4.508351 19.607728
