54
A
Ti 0.663462 1.707886 3.454493
Ti 0.589547 0.396187 1.151498
Ti 0.663462 1.707886 8.060485
Ti 0.589547 0.396187 5.757489
Ti 0.663462 1.707886 12.666476
Ti 0.589547 0.396187 10.363480
Ti 1.916472 3.811959 3.454493
Ti 1.842557 2.500259 1.151498
Ti 1.916472 3.811959 8.060485
Ti 1.842557 2.500259 5.757489
Ti 1.916472 3.811959 12.666476
Ti 1.842557 2.500259 10.363480
Ti 3.169481 5.916031 3.454493
Ti 3.095566 4.604332 1.151498
Ti 3.169481 5.916031 8.060485
Ti 3.095566 4.604332 5.757489
Ti 3.169481 5.916031 12.666476
Ti 3.095566 4.604332 10.363480
Ti 3.414604 1.088324 8.060485
Ti 3.340689 -0.223375 5.757489
Ti 3.414604 1.088324 12.666476
Ti 3.340689 -0.223375 10.363480
Ti 3.414604 1.088324 17.272467
Ti 3.340689 -0.223375 14.969471
Ti 4.667613 3.192396 8.060485
Ti 4.593698 1.880697 5.757489
Ti 4.667613 3.192396 12.666476
Ti 4.593698 1.880697 10.363480
Ti 4.667613 3.192396 17.272467
Ti 4.593698 1.880697 14.969471
Ti 5.920623 5.296469 8.060485
Ti 5.846707 3.984770 5.757489
Ti 5.920623 5.296469 12.666476
Ti 5.846707 3.984770 10.363480
Ti 5.920623 5.296469 17.272467
Ti 5.846707 3.984770 14.969471
Ti 6.165745 0.468762 12.666476
Ti 6.091830 -0.842938 10.363480
Ti 6.165745 0.468762 17.272467
Ti 6.091830 -0.842938 14.969471
Ti 6.165745 0.468762 21.878458
Ti 6.091830 -0.842938 19.575462
Ti 7.418755 2.572834 12.666476
Ti 7.344839 1.261135 10.363480
Ti 7.418755 2.572834 17.272467
Ti 7.344839 1.261135 14.969471
Ti 7.418755 2.572834 21.878458
Ti 7.344839 1.261135 19.575462
Ti 8.671764 4.676907 12.666476
Ti 8.597849 3.365208 10.363480
Ti 8.671764 4.676907 17.272467
Ti 8.597849 3.365208 14.969471
Ti 8.671764 4.676907 21.878458
Ti 8.597849 3.365208 19.575462
