54
A
Ti 1.323404 1.831609 3.457973
Ti 0.667360 0.419094 1.152658
Ti 1.323404 1.831609 8.068604
Ti 0.667360 0.419094 5.763288
Ti 1.323404 1.831609 12.679234
Ti 0.667360 0.419094 10.373919
Ti 0.500901 4.495354 -1.152658
Ti -0.155143 3.082839 -3.457973
Ti 0.500901 4.495354 3.457973
Ti -0.155143 3.082839 1.152658
Ti 0.500901 4.495354 8.068604
Ti -0.155143 3.082839 5.763288
Ti -0.321602 7.159099 -5.763288
Ti -0.977646 5.746585 -8.068604
Ti -0.321602 7.159099 -1.152658
Ti -0.977646 5.746585 -3.457973
Ti -0.321602 7.159099 3.457973
Ti -0.977646 5.746585 1.152658
Ti 4.136670 1.418568 8.068604
Ti 3.480626 0.006053 5.763288
Ti 4.136670 1.418568 12.679234
Ti 3.480626 0.006053 10.373919
Ti 4.136670 1.418568 17.289865
Ti 3.480626 0.006053 14.984550
Ti 3.314167 4.082313 3.457973
Ti 2.658123 2.669798 1.152658
Ti 3.314167 4.082313 8.068604
Ti 2.658123 2.669798 5.763288
Ti 3.314167 4.082313 12.679234
Ti 2.658123 2.669798 10.373919
Ti 2.491664 6.746058 -1.152658
Ti 1.835620 5.333543 -3.457973
Ti 2.491664 6.746058 3.457973
Ti 1.835620 5.333543 1.152658
Ti 2.491664 6.746058 8.068604
Ti 1.835620 5.333543 5.763288
Ti 6.949936 1.005527 12.679234
Ti 6.293892 -0.406988 10.373919
Ti 6.949936 1.005527 17.289865
Ti 6.293892 -0.406988 14.984550
Ti 6.949936 1.005527 21.900496
Ti 6.293892 -0.406988 19.595180
Ti 6.127433 3.669272 8.068604
Ti 5.471389 2.256757 5.763288
Ti 6.127433 3.669272 12.679234
Ti 5.471389 2.256757 10.373919
Ti 6.127433 3.669272 17.289865
Ti 5.471389 2.256757 14.984550
Ti 5.304930 6.333017 3.457973
Ti 4.648886 4.920502 1.152658
Ti 5.304930 6.333017 8.068604
Ti 4.648886 4.920502 5.763288
Ti 5.304930 6.333017 12.679234
Ti 4.648886 4.920502 10.373919
