54
A
Ti 0.905150 1.659306 3.453544
Ti 0.595293 0.404777 1.151181
Ti 0.905150 1.659306 8.058270
Ti 0.595293 0.404777 5.755907
Ti 0.905150 1.659306 12.662996
Ti 0.595293 0.404777 10.360633
Ti 2.405592 3.723388 3.453544
Ti 2.095735 2.468859 1.151181
Ti 2.405592 3.723388 8.058270
Ti 2.095735 2.468859 5.755907
Ti 2.405592 3.723388 12.662996
Ti 2.095735 2.468859 10.360633
Ti 3.906035 5.787470 3.453544
Ti 3.596178 4.532941 1.151181
Ti 3.906035 5.787470 8.058270
Ti 3.596178 4.532941 5.755907
Ti 3.906035 5.787470 12.662996
Ti 3.596178 4.532941 10.360633
Ti 3.639348 0.983420 8.058270
Ti 3.329491 -0.271109 5.755907
Ti 3.639348 0.983420 12.662996
Ti 3.329491 -0.271109 10.360633
Ti 3.639348 0.983420 17.267722
Ti 3.329491 -0.271109 14.965359
Ti 5.139791 3.047502 8.058270
Ti 4.829934 1.792973 5.755907
Ti 5.139791 3.047502 12.662996
Ti 4.829934 1.792973 10.360633
Ti 5.139791 3.047502 17.267722
Ti 4.829934 1.792973 14.965359
Ti 6.640233 5.111584 8.058270
Ti 6.330376 3.857055 5.755907
Ti 6.640233 5.111584 12.662996
Ti 6.330376 3.857055 10.360633
Ti 6.640233 5.111584 17.267722
Ti 6.330376 3.857055 14.965359
Ti 6.373546 0.307534 12.662996
Ti 6.063689 -0.946995 10.360633
Ti 6.373546 0.307534 17.267722
Ti 6.063689 -0.946995 14.965359
Ti 6.373546 0.307534 21.872448
Ti 6.063689 -0.946995 19.570085
Ti 7.873989 2.371616 12.662996
Ti 7.564132 1.117087 10.360633
Ti 7.873989 2.371616 17.267722
Ti 7.564132 1.117087 14.965359
Ti 7.873989 2.371616 21.872448
Ti 7.564132 1.117087 19.570085
Ti 9.374432 4.435698 12.662996
Ti 9.064575 3.181169 10.360633
Ti 9.374432 4.435698 17.267722
Ti 9.064575 3.181169 14.965359
Ti 9.374432 4.435698 21.872448
Ti 9.064575 3.181169 19.570085
