54
A
Ti 1.035956 1.980673 3.461453
Ti 0.693806 0.416662 1.153818
Ti 1.035956 1.980673 8.076723
Ti 0.693806 0.416662 5.769088
Ti 1.035956 1.980673 12.691993
Ti 0.693806 0.416662 10.384358
Ti -0.109673 4.584529 -1.153818
Ti -0.451823 3.020517 -3.461453
Ti -0.109673 4.584529 3.461453
Ti -0.451823 3.020517 1.153818
Ti -0.109673 4.584529 8.076723
Ti -0.451823 3.020517 5.769088
Ti -1.255302 7.188384 -5.769088
Ti -1.597452 5.624373 -8.076723
Ti -1.255302 7.188384 -1.153818
Ti -1.597452 5.624373 -3.461453
Ti -1.255302 7.188384 3.461453
Ti -1.597452 5.624373 1.153818
Ti 3.911346 1.774152 8.076723
Ti 3.569197 0.210141 5.769088
Ti 3.911346 1.774152 12.691993
Ti 3.569197 0.210141 10.384358
Ti 3.911346 1.774152 17.307263
Ti 3.569197 0.210141 14.999628
Ti 2.765717 4.378008 3.461453
Ti 2.423568 2.813997 1.153818
Ti 2.765717 4.378008 8.076723
Ti 2.423568 2.813997 5.769088
Ti 2.765717 4.378008 12.691993
Ti 2.423568 2.813997 10.384358
Ti 1.620088 6.981863 -1.153818
Ti 1.277939 5.417852 -3.461453
Ti 1.620088 6.981863 3.461453
Ti 1.277939 5.417852 1.153818
Ti 1.620088 6.981863 8.076723
Ti 1.277939 5.417852 5.769088
Ti 6.786737 1.567632 12.691993
Ti 6.444587 0.003620 10.384358
Ti 6.786737 1.567632 17.307263
Ti 6.444587 0.003620 14.999628
Ti 6.786737 1.567632 21.922533
Ti 6.444587 0.003620 19.614898
Ti 5.641108 4.171487 8.076723
Ti 5.298958 2.607476 5.769088
Ti 5.641108 4.171487 12.691993
Ti 5.298958 2.607476 10.384358
Ti 5.641108 4.171487 17.307263
Ti 5.298958 2.607476 14.999628
Ti 4.495479 6.775343 3.461453
Ti 4.153329 5.211331 1.153818
Ti 4.495479 6.775343 8.076723
Ti 4.153329 5.211331 5.769088
Ti 4.495479 6.775343 12.691993
Ti 4.153329 5.211331 10.384358
