54
A
Ti 1.656874 1.635317 3.453703
Ti 0.654209 0.435431 1.151234
Ti 1.656874 1.635317 8.058639
Ti 0.654209 0.435431 5.756171
Ti 1.656874 1.635317 12.663576
Ti 0.654209 0.435431 10.361108
Ti 1.230935 4.372563 -1.151234
Ti 0.228270 3.172677 -3.453703
Ti 1.230935 4.372563 3.453703
Ti 0.228270 3.172677 1.151234
Ti 1.230935 4.372563 8.058639
Ti 0.228270 3.172677 5.756171
Ti 0.804996 7.109808 -5.756171
Ti -0.197669 5.909922 -8.058639
Ti 0.804996 7.109808 -1.151234
Ti -0.197669 5.909922 -3.453703
Ti 0.804996 7.109808 3.453703
Ti -0.197669 5.909922 1.151234
Ti 4.393896 0.968818 8.058639
Ti 3.391231 -0.231068 5.756171
Ti 4.393896 0.968818 12.663576
Ti 3.391231 -0.231068 10.361108
Ti 4.393896 0.968818 17.268513
Ti 3.391231 -0.231068 14.966044
Ti 3.967957 3.706064 3.453703
Ti 2.965292 2.506178 1.151234
Ti 3.967957 3.706064 8.058639
Ti 2.965292 2.506178 5.756171
Ti 3.967957 3.706064 12.663576
Ti 2.965292 2.506178 10.361108
Ti 3.542018 6.443310 -1.151234
Ti 2.539353 5.243424 -3.453703
Ti 3.542018 6.443310 3.453703
Ti 2.539353 5.243424 1.151234
Ti 3.542018 6.443310 8.058639
Ti 2.539353 5.243424 5.756171
Ti 7.130919 0.302319 12.663576
Ti 6.128253 -0.897567 10.361108
Ti 7.130919 0.302319 17.268513
Ti 6.128253 -0.897567 14.966044
Ti 7.130919 0.302319 21.873450
Ti 6.128253 -0.897567 19.570981
Ti 6.704980 3.039565 8.058639
Ti 5.702314 1.839679 5.756171
Ti 6.704980 3.039565 12.663576
Ti 5.702314 1.839679 10.361108
Ti 6.704980 3.039565 17.268513
Ti 5.702314 1.839679 14.966044
Ti 6.279041 5.776811 3.453703
Ti 5.276375 4.576925 1.151234
Ti 6.279041 5.776811 8.058639
Ti 5.276375 4.576925 5.756171
Ti 6.279041 5.776811 12.663576
Ti 5.276375 4.576925 10.361108
