54
A
Ti 0.045454 1.821230 3.456866
Ti 0.588973 0.382819 1.152289
Ti 0.045454 1.821230 8.066020
Ti 0.588973 0.382819 5.761443
Ti 0.045454 1.821230 12.675175
Ti 0.588973 0.382819 10.370598
Ti 0.679880 4.025278 3.456866
Ti 1.223400 2.586867 1.152289
Ti 0.679880 4.025278 8.066020
Ti 1.223400 2.586867 5.761443
Ti 0.679880 4.025278 12.675175
Ti 1.223400 2.586867 10.370598
Ti 1.314307 6.229326 3.456866
Ti 1.857826 4.790915 1.152289
Ti 1.314307 6.229326 8.066020
Ti 1.857826 4.790915 5.761443
Ti 1.314307 6.229326 12.675175
Ti 1.857826 4.790915 10.370598
Ti 2.838953 1.342477 8.066020
Ti 3.382472 -0.095934 5.761443
Ti 2.838953 1.342477 12.675175
Ti 3.382472 -0.095934 10.370598
Ti 2.838953 1.342477 17.284329
Ti 3.382472 -0.095934 14.979752
Ti 3.473379 3.546526 8.066020
Ti 4.016899 2.108114 5.761443
Ti 3.473379 3.546526 12.675175
Ti 4.016899 2.108114 10.370598
Ti 3.473379 3.546526 17.284329
Ti 4.016899 2.108114 14.979752
Ti 4.107806 5.750574 8.066020
Ti 4.651325 4.312163 5.761443
Ti 4.107806 5.750574 12.675175
Ti 4.651325 4.312163 10.370598
Ti 4.107806 5.750574 17.284329
Ti 4.651325 4.312163 14.979752
Ti 5.632452 0.863725 12.675175
Ti 6.175971 -0.574687 10.370598
Ti 5.632452 0.863725 17.284329
Ti 6.175971 -0.574687 14.979752
Ti 5.632452 0.863725 21.893484
Ti 6.175971 -0.574687 19.588906
Ti 6.266878 3.067773 12.675175
Ti 6.810398 1.629362 10.370598
Ti 6.266878 3.067773 17.284329
Ti 6.810398 1.629362 14.979752
Ti 6.266878 3.067773 21.893484
Ti 6.810398 1.629362 19.588906
Ti 6.901305 5.271821 12.675175
Ti 7.444824 3.833410 10.370598
Ti 6.901305 5.271821 17.284329
Ti 7.444824 3.833410 14.979752
Ti 6.901305 5.271821 21.893484
Ti 7.444824 3.833410 19.588906
