54
A
Ti 0.900628 2.045200 3.463034
Ti 0.710497 0.418785 1.154345
Ti 0.900628 2.045200 8.080413
Ti 0.710497 0.418785 5.771724
Ti 0.900628 2.045200 12.697792
Ti 0.710497 0.418785 10.389103
Ti -0.391877 4.621833 -1.154345
Ti -0.582008 2.995418 -3.463034
Ti -0.391877 4.621833 3.463034
Ti -0.582008 2.995418 1.154345
Ti -0.391877 4.621833 8.080413
Ti -0.582008 2.995418 5.771724
Ti -1.684381 7.198466 -5.771724
Ti -1.874513 5.572051 -8.080413
Ti -1.684381 7.198466 -1.154345
Ti -1.874513 5.572051 -3.463034
Ti -1.684381 7.198466 3.463034
Ti -1.874513 5.572051 1.154345
Ti 3.804257 1.932552 8.080413
Ti 3.614126 0.306138 5.771724
Ti 3.804257 1.932552 12.697792
Ti 3.614126 0.306138 10.389103
Ti 3.804257 1.932552 17.315171
Ti 3.614126 0.306138 15.006482
Ti 2.511753 4.509185 3.463034
Ti 2.321621 2.882771 1.154345
Ti 2.511753 4.509185 8.080413
Ti 2.321621 2.882771 5.771724
Ti 2.511753 4.509185 12.697792
Ti 2.321621 2.882771 10.389103
Ti 1.219248 7.085818 -1.154345
Ti 1.029117 5.459403 -3.463034
Ti 1.219248 7.085818 3.463034
Ti 1.029117 5.459403 1.154345
Ti 1.219248 7.085818 8.080413
Ti 1.029117 5.459403 5.771724
Ti 6.707886 1.819905 12.697792
Ti 6.517755 0.193490 10.389103
Ti 6.707886 1.819905 17.315171
Ti 6.517755 0.193490 15.006482
Ti 6.707886 1.819905 21.932550
Ti 6.517755 0.193490 19.623861
Ti 5.415382 4.396538 8.080413
Ti 5.225250 2.770123 5.771724
Ti 5.415382 4.396538 12.697792
Ti 5.225250 2.770123 10.389103
Ti 5.415382 4.396538 17.315171
Ti 5.225250 2.770123 15.006482
Ti 4.122877 6.973171 3.463034
Ti 3.932746 5.346756 1.154345
Ti 4.122877 6.973171 8.080413
Ti 3.932746 5.346756 5.771724
Ti 4.122877 6.973171 12.697792
Ti 3.932746 5.346756 10.389103
