54
A
Ti 1.233475 1.880098 3.459080
Ti 0.674242 0.417261 1.153027
Ti 1.233475 1.880098 8.071187
Ti 0.674242 0.417261 5.765134
Ti 1.233475 1.880098 12.683294
Ti 0.674242 0.417261 10.377240
Ti 0.308159 4.524788 -1.153027
Ti -0.251074 3.061950 -3.459080
Ti 0.308159 4.524788 3.459080
Ti -0.251074 3.061950 1.153027
Ti 0.308159 4.524788 8.071187
Ti -0.251074 3.061950 5.765134
Ti -0.617156 7.169477 -5.765134
Ti -1.176389 5.706639 -8.071187
Ti -0.617156 7.169477 -1.153027
Ti -1.176389 5.706639 -3.459080
Ti -0.617156 7.169477 3.459080
Ti -1.176389 5.706639 1.153027
Ti 4.066508 1.532768 8.071187
Ti 3.507275 0.069931 5.765134
Ti 4.066508 1.532768 12.683294
Ti 3.507275 0.069931 10.377240
Ti 4.066508 1.532768 17.295401
Ti 3.507275 0.069931 14.989347
Ti 3.141192 4.177457 3.459080
Ti 2.581959 2.714620 1.153027
Ti 3.141192 4.177457 8.071187
Ti 2.581959 2.714620 5.765134
Ti 3.141192 4.177457 12.683294
Ti 2.581959 2.714620 10.377240
Ti 2.215877 6.822147 -1.153027
Ti 1.656644 5.359309 -3.459080
Ti 2.215877 6.822147 3.459080
Ti 1.656644 5.359309 1.153027
Ti 2.215877 6.822147 8.071187
Ti 1.656644 5.359309 5.765134
Ti 6.899541 1.185438 12.683294
Ti 6.340308 -0.277400 10.377240
Ti 6.899541 1.185438 17.295401
Ti 6.340308 -0.277400 14.989347
Ti 6.899541 1.185438 21.907507
Ti 6.340308 -0.277400 19.601454
Ti 5.974225 3.830127 8.071187
Ti 5.414992 2.367290 5.765134
Ti 5.974225 3.830127 12.683294
Ti 5.414992 2.367290 10.377240
Ti 5.974225 3.830127 17.295401
Ti 5.414992 2.367290 14.989347
Ti 5.048910 6.474816 3.459080
Ti 4.489677 5.011979 1.153027
Ti 5.048910 6.474816 8.071187
Ti 4.489677 5.011979 5.765134
Ti 5.048910 6.474816 12.683294
Ti 4.489677 5.011979 10.377240
