54
A
Ti 1.946673 1.440446 3.449748
Ti 0.661003 0.463675 1.149916
Ti 1.946673 1.440446 8.049413
Ti 0.661003 0.463675 5.749581
Ti 1.946673 1.440446 12.649078
Ti 0.661003 0.463675 10.349245
Ti 1.887923 4.245748 -1.149916
Ti 0.602253 3.268978 -3.449748
Ti 1.887923 4.245748 3.449748
Ti 0.602253 3.268978 1.149916
Ti 1.887923 4.245748 8.049413
Ti 0.602253 3.268978 5.749581
Ti 1.829172 7.051050 -5.749581
Ti 0.543502 6.074280 -8.049413
Ti 1.829172 7.051050 -1.149916
Ti 0.543502 6.074280 -3.449748
Ti 1.829172 7.051050 3.449748
Ti 0.543502 6.074280 1.149916
Ti 4.613099 0.539264 8.049413
Ti 3.327429 -0.437506 5.749581
Ti 4.613099 0.539264 12.649078
Ti 3.327429 -0.437506 10.349245
Ti 4.613099 0.539264 17.248742
Ti 3.327429 -0.437506 14.948910
Ti 4.554349 3.344567 3.449748
Ti 3.268679 2.367796 1.149916
Ti 4.554349 3.344567 8.049413
Ti 3.268679 2.367796 5.749581
Ti 4.554349 3.344567 12.649078
Ti 3.268679 2.367796 10.349245
Ti 4.495598 6.149869 -1.149916
Ti 3.209928 5.173099 -3.449748
Ti 4.495598 6.149869 3.449748
Ti 3.209928 5.173099 1.149916
Ti 4.495598 6.149869 8.049413
Ti 3.209928 5.173099 5.749581
Ti 7.279525 -0.361917 12.649078
Ti 5.993855 -1.338687 10.349245
Ti 7.279525 -0.361917 17.248742
Ti 5.993855 -1.338687 14.948910
Ti 7.279525 -0.361917 21.848407
Ti 5.993855 -1.338687 19.548575
Ti 7.220775 2.443385 8.049413
Ti 5.935105 1.466615 5.749581
Ti 7.220775 2.443385 12.649078
Ti 5.935105 1.466615 10.349245
Ti 7.220775 2.443385 17.248742
Ti 5.935105 1.466615 14.948910
Ti 7.162024 5.248688 3.449748
Ti 5.876354 4.271918 1.149916
Ti 7.162024 5.248688 8.049413
Ti 5.876354 4.271918 5.749581
Ti 7.162024 5.248688 12.649078
Ti 5.876354 4.271918 10.349245
