54
A
Ti 1.523584 1.717064 3.455442
Ti 0.656998 0.426999 1.151814
Ti 1.523584 1.717064 8.062699
Ti 0.656998 0.426999 5.759071
Ti 1.523584 1.717064 12.669955
Ti 0.656998 0.426999 10.366327
Ti 0.936082 4.424365 -1.151814
Ti 0.069496 3.134300 -3.455442
Ti 0.936082 4.424365 3.455442
Ti 0.069496 3.134300 1.151814
Ti 0.936082 4.424365 8.062699
Ti 0.069496 3.134300 5.759071
Ti 0.348580 7.131666 -5.759071
Ti -0.518006 5.841601 -8.062699
Ti 0.348580 7.131666 -1.151814
Ti -0.518006 5.841601 -3.455442
Ti 0.348580 7.131666 3.455442
Ti -0.518006 5.841601 1.151814
Ti 4.291669 1.153826 8.062699
Ti 3.425083 -0.136239 5.759071
Ti 4.291669 1.153826 12.669955
Ti 3.425083 -0.136239 10.366327
Ti 4.291669 1.153826 17.277212
Ti 3.425083 -0.136239 14.973584
Ti 3.704166 3.861127 3.455442
Ti 2.837581 2.571062 1.151814
Ti 3.704166 3.861127 8.062699
Ti 2.837581 2.571062 5.759071
Ti 3.704166 3.861127 12.669955
Ti 2.837581 2.571062 10.366327
Ti 3.116664 6.568428 -1.151814
Ti 2.250079 5.278363 -3.455442
Ti 3.116664 6.568428 3.455442
Ti 2.250079 5.278363 1.151814
Ti 3.116664 6.568428 8.062699
Ti 2.250079 5.278363 5.759071
Ti 7.059753 0.590587 12.669955
Ti 6.193167 -0.699477 10.366327
Ti 7.059753 0.590587 17.277212
Ti 6.193167 -0.699477 14.973584
Ti 7.059753 0.590587 21.884468
Ti 6.193167 -0.699477 19.580840
Ti 6.472251 3.297888 8.062699
Ti 5.605665 2.007824 5.759071
Ti 6.472251 3.297888 12.669955
Ti 5.605665 2.007824 10.366327
Ti 6.472251 3.297888 17.277212
Ti 5.605665 2.007824 14.973584
Ti 5.884749 6.005190 3.455442
Ti 5.018163 4.715125 1.151814
Ti 5.884749 6.005190 8.062699
Ti 5.018163 4.715125 5.759071
Ti 5.884749 6.005190 12.669955
Ti 5.018163 4.715125 10.366327
