54
A
Ti 1.774983 1.558882 3.452121
Ti 0.654738 0.445215 1.150707
Ti 1.774983 1.558882 8.054949
Ti 0.654738 0.445215 5.753535
Ti 1.774983 1.558882 12.657777
Ti 0.654738 0.445215 10.356363
Ti 1.495919 4.323350 -1.150707
Ti 0.375674 3.209683 -3.452121
Ti 1.495919 4.323350 3.452121
Ti 0.375674 3.209683 1.150707
Ti 1.495919 4.323350 8.054949
Ti 0.375674 3.209683 5.753535
Ti 1.216856 7.087819 -5.753535
Ti 0.096611 5.974152 -8.054949
Ti 1.216856 7.087819 -1.150707
Ti 0.096611 5.974152 -3.452121
Ti 1.216856 7.087819 3.452121
Ti 0.096611 5.974152 1.150707
Ti 4.483766 0.798510 8.054949
Ti 3.363521 -0.315157 5.753535
Ti 4.483766 0.798510 12.657777
Ti 3.363521 -0.315157 10.356363
Ti 4.483766 0.798510 17.260605
Ti 3.363521 -0.315157 14.959191
Ti 4.204703 3.562979 3.452121
Ti 3.084458 2.449312 1.150707
Ti 4.204703 3.562979 8.054949
Ti 3.084458 2.449312 5.753535
Ti 4.204703 3.562979 12.657777
Ti 3.084458 2.449312 10.356363
Ti 3.925639 6.327447 -1.150707
Ti 2.805394 5.213780 -3.452121
Ti 3.925639 6.327447 3.452121
Ti 2.805394 5.213780 1.150707
Ti 3.925639 6.327447 8.054949
Ti 2.805394 5.213780 5.753535
Ti 7.192550 0.038139 12.657777
Ti 6.072305 -1.075528 10.356363
Ti 7.192550 0.038139 17.260605
Ti 6.072305 -1.075528 14.959191
Ti 7.192550 0.038139 21.863432
Ti 6.072305 -1.075528 19.562019
Ti 6.913486 2.802607 8.054949
Ti 5.793242 1.688940 5.753535
Ti 6.913486 2.802607 12.657777
Ti 5.793242 1.688940 10.356363
Ti 6.913486 2.802607 17.260605
Ti 5.793242 1.688940 14.959191
Ti 6.634423 5.567076 3.452121
Ti 5.514178 4.453408 1.150707
Ti 6.634423 5.567076 8.054949
Ti 5.514178 4.453408 5.753535
Ti 6.634423 5.567076 12.657777
Ti 5.514178 4.453408 10.356363
