54
A
Ti 0.995664 2.000243 3.461927
Ti 0.698507 0.417087 1.153976
Ti 0.995664 2.000243 8.077830
Ti 0.698507 0.417087 5.769878
Ti 0.995664 2.000243 12.693733
Ti 0.698507 0.417087 10.385781
Ti -0.194028 4.595932 -1.153976
Ti -0.491185 3.012776 -3.461927
Ti -0.194028 4.595932 3.461927
Ti -0.491185 3.012776 1.153976
Ti -0.194028 4.595932 8.077830
Ti -0.491185 3.012776 5.769878
Ti -1.383720 7.191620 -5.769878
Ti -1.680877 5.608464 -8.077830
Ti -1.383720 7.191620 -1.153976
Ti -1.680877 5.608464 -3.461927
Ti -1.383720 7.191620 3.461927
Ti -1.680877 5.608464 1.153976
Ti 3.879526 1.821884 8.077830
Ti 3.582369 0.238728 5.769878
Ti 3.879526 1.821884 12.693733
Ti 3.582369 0.238728 10.385781
Ti 3.879526 1.821884 17.309635
Ti 3.582369 0.238728 15.001684
Ti 2.689834 4.417573 3.461927
Ti 2.392677 2.834417 1.153976
Ti 2.689834 4.417573 8.077830
Ti 2.392677 2.834417 5.769878
Ti 2.689834 4.417573 12.693733
Ti 2.392677 2.834417 10.385781
Ti 1.500143 7.013262 -1.153976
Ti 1.202986 5.430106 -3.461927
Ti 1.500143 7.013262 3.461927
Ti 1.202986 5.430106 1.153976
Ti 1.500143 7.013262 8.077830
Ti 1.202986 5.430106 5.769878
Ti 6.763388 1.643525 12.693733
Ti 6.466231 0.060369 10.385781
Ti 6.763388 1.643525 17.309635
Ti 6.466231 0.060369 15.001684
Ti 6.763388 1.643525 21.925538
Ti 6.466231 0.060369 19.617587
Ti 5.573697 4.239214 8.077830
Ti 5.276539 2.656058 5.769878
Ti 5.573697 4.239214 12.693733
Ti 5.276539 2.656058 10.385781
Ti 5.573697 4.239214 17.309635
Ti 5.276539 2.656058 15.001684
Ti 4.384005 6.834903 3.461927
Ti 4.086848 5.251747 1.153976
Ti 4.384005 6.834903 8.077830
Ti 4.086848 5.251747 5.769878
Ti 4.384005 6.834903 12.693733
Ti 4.086848 5.251747 10.385781
