54
A
Ti 0.582199 1.723668 3.454810
Ti 0.588332 0.393735 1.151603
Ti 0.582199 1.723668 8.061223
Ti 0.588332 0.393735 5.758016
Ti 0.582199 1.723668 12.667636
Ti 0.588332 0.393735 10.364429
Ti 1.752731 3.841070 3.454810
Ti 1.758864 2.511138 1.151603
Ti 1.752731 3.841070 8.061223
Ti 1.758864 2.511138 5.758016
Ti 1.752731 3.841070 12.667636
Ti 1.758864 2.511138 10.364429
Ti 2.923263 5.958473 3.454810
Ti 2.929396 4.628540 1.151603
Ti 2.923263 5.958473 8.061223
Ti 2.929396 4.628540 5.758016
Ti 2.923263 5.958473 12.667636
Ti 2.929396 4.628540 10.364429
Ti 3.338988 1.122880 8.061223
Ti 3.345121 -0.207052 5.758016
Ti 3.338988 1.122880 12.667636
Ti 3.345121 -0.207052 10.364429
Ti 3.338988 1.122880 17.274049
Ti 3.345121 -0.207052 14.970842
Ti 4.509520 3.240283 8.061223
Ti 4.515653 1.910350 5.758016
Ti 4.509520 3.240283 12.667636
Ti 4.515653 1.910350 10.364429
Ti 4.509520 3.240283 17.274049
Ti 4.515653 1.910350 14.970842
Ti 5.680052 5.357686 8.061223
Ti 5.686185 4.027753 5.758016
Ti 5.680052 5.357686 12.667636
Ti 5.686185 4.027753 10.364429
Ti 5.680052 5.357686 17.274049
Ti 5.686185 4.027753 14.970842
Ti 6.095778 0.522093 12.667636
Ti 6.101911 -0.807840 10.364429
Ti 6.095778 0.522093 17.274049
Ti 6.101911 -0.807840 14.970842
Ti 6.095778 0.522093 21.880461
Ti 6.101911 -0.807840 19.577255
Ti 7.266309 2.639495 12.667636
Ti 7.272442 1.309563 10.364429
Ti 7.266309 2.639495 17.274049
Ti 7.272442 1.309563 14.970842
Ti 7.266309 2.639495 21.880461
Ti 7.272442 1.309563 19.577255
Ti 8.436841 4.756898 12.667636
Ti 8.442974 3.426965 10.364429
Ti 8.436841 4.756898 17.274049
Ti 8.442974 3.426965 14.970842
Ti 8.436841 4.756898 21.880461
Ti 8.442974 3.426965 19.577255
