54
A
Ti 0.336309 1.769777 3.455759
Ti 0.586789 0.387616 1.151920
Ti 0.336309 1.769777 8.063437
Ti 0.586789 0.387616 5.759598
Ti 0.336309 1.769777 12.671115
Ti 0.586789 0.387616 10.367276
Ti 1.259408 3.927170 3.455759
Ti 1.509888 2.545009 1.151920
Ti 1.259408 3.927170 8.063437
Ti 1.509888 2.545009 5.759598
Ti 1.259408 3.927170 12.671115
Ti 1.509888 2.545009 10.367276
Ti 2.182506 6.084563 3.455759
Ti 2.432986 4.702402 1.151920
Ti 2.182506 6.084563 8.063437
Ti 2.432986 4.702402 5.759598
Ti 2.182506 6.084563 12.671115
Ti 2.432986 4.702402 10.367276
Ti 3.110041 1.225314 8.063437
Ti 3.360522 -0.156848 5.759598
Ti 3.110041 1.225314 12.671115
Ti 3.360522 -0.156848 10.367276
Ti 3.110041 1.225314 17.278793
Ti 3.360522 -0.156848 14.974954
Ti 4.033140 3.382707 8.063437
Ti 4.283620 2.000545 5.759598
Ti 4.033140 3.382707 12.671115
Ti 4.283620 2.000545 10.367276
Ti 4.033140 3.382707 17.278793
Ti 4.283620 2.000545 14.974954
Ti 4.956239 5.540100 8.063437
Ti 5.206719 4.157938 5.759598
Ti 4.956239 5.540100 12.671115
Ti 5.206719 4.157938 10.367276
Ti 4.956239 5.540100 17.278793
Ti 5.206719 4.157938 14.974954
Ti 5.883774 0.680850 12.671115
Ti 6.134254 -0.701312 10.367276
Ti 5.883774 0.680850 17.278793
Ti 6.134254 -0.701312 14.974954
Ti 5.883774 0.680850 21.886472
Ti 6.134254 -0.701312 19.582633
Ti 6.806872 2.838243 12.671115
Ti 7.057352 1.456081 10.367276
Ti 6.806872 2.838243 17.278793
Ti 7.057352 1.456081 14.974954
Ti 6.806872 2.838243 21.886472
Ti 7.057352 1.456081 19.582633
Ti 7.729971 4.995636 12.671115
Ti 7.980451 3.613474 10.367276
Ti 7.729971 4.995636 17.278793
Ti 7.980451 3.613474 14.974954
Ti 7.729971 4.995636 21.886472
Ti 7.980451 3.613474 19.582633
