54
A
Ti -1.972614 2.096600 3.464141
Ti 0.710054 0.414041 1.154714
Ti -1.972614 2.096600 8.082997
Ti 0.710054 0.414041 5.773569
Ti -1.972614 2.096600 12.701852
Ti 0.710054 0.414041 10.392424
Ti -3.235175 4.607240 3.464141
Ti -0.552507 2.924682 1.154714
Ti -3.235175 4.607240 8.082997
Ti -0.552507 2.924682 5.773569
Ti -3.235175 4.607240 12.701852
Ti -0.552507 2.924682 10.392424
Ti -4.497736 7.117881 3.464141
Ti -1.815068 5.435322 1.154714
Ti -4.497736 7.117881 8.082997
Ti -1.815068 5.435322 5.773569
Ti -4.497736 7.117881 12.701852
Ti -1.815068 5.435322 10.392424
Ti 0.950782 2.049663 8.082997
Ti 3.633450 0.367104 5.773569
Ti 0.950782 2.049663 12.701852
Ti 3.633450 0.367104 10.392424
Ti 0.950782 2.049663 17.320707
Ti 3.633450 0.367104 15.011279
Ti -0.311779 4.560304 8.082997
Ti 2.370889 2.877745 5.773569
Ti -0.311779 4.560304 12.701852
Ti 2.370889 2.877745 10.392424
Ti -0.311779 4.560304 17.320707
Ti 2.370889 2.877745 15.011279
Ti -1.574340 7.070945 8.082997
Ti 1.108328 5.388386 5.773569
Ti -1.574340 7.070945 12.701852
Ti 1.108328 5.388386 10.392424
Ti -1.574340 7.070945 17.320707
Ti 1.108328 5.388386 15.011279
Ti 3.874178 2.002727 12.701852
Ti 6.556846 0.320168 10.392424
Ti 3.874178 2.002727 17.320707
Ti 6.556846 0.320168 15.011279
Ti 3.874178 2.002727 21.939562
Ti 6.556846 0.320168 19.630134
Ti 2.611617 4.513367 12.701852
Ti 5.294285 2.830808 10.392424
Ti 2.611617 4.513367 17.320707
Ti 5.294285 2.830808 15.011279
Ti 2.611617 4.513367 21.939562
Ti 5.294285 2.830808 19.630134
Ti 1.349056 7.024008 12.701852
Ti 4.031724 5.341449 10.392424
Ti 1.349056 7.024008 17.320707
Ti 4.031724 5.341449 15.011279
Ti 1.349056 7.024008 21.939562
Ti 4.031724 5.341449 19.630134
