54
A
Ti 0.128993 1.806786 3.456550
Ti 0.587911 0.383932 1.152183
Ti 0.128993 1.806786 8.065282
Ti 0.587911 0.383932 5.760916
Ti 0.128993 1.806786 12.674015
Ti 0.587911 0.383932 10.369649
Ti 0.845897 3.997505 3.456550
Ti 1.304816 2.574650 1.152183
Ti 0.845897 3.997505 8.065282
Ti 1.304816 2.574650 5.760916
Ti 0.845897 3.997505 12.674015
Ti 1.304816 2.574650 10.369649
Ti 1.562801 6.188223 3.456550
Ti 2.021720 4.765368 1.152183
Ti 1.562801 6.188223 8.065282
Ti 2.021720 4.765368 5.760916
Ti 1.562801 6.188223 12.674015
Ti 2.021720 4.765368 10.369649
Ti 2.916844 1.309259 8.065282
Ti 3.375763 -0.113595 5.760916
Ti 2.916844 1.309259 12.674015
Ti 3.375763 -0.113595 10.369649
Ti 2.916844 1.309259 17.282748
Ti 3.375763 -0.113595 14.978381
Ti 3.633749 3.499978 8.065282
Ti 4.092667 2.077123 5.760916
Ti 3.633749 3.499978 12.674015
Ti 4.092667 2.077123 10.369649
Ti 3.633749 3.499978 17.282748
Ti 4.092667 2.077123 14.978381
Ti 4.350653 5.690696 8.065282
Ti 4.809571 4.267841 5.760916
Ti 4.350653 5.690696 12.674015
Ti 4.809571 4.267841 10.369649
Ti 4.350653 5.690696 17.282748
Ti 4.809571 4.267841 14.978381
Ti 5.704696 0.811732 12.674015
Ti 6.163614 -0.611122 10.369649
Ti 5.704696 0.811732 17.282748
Ti 6.163614 -0.611122 14.978381
Ti 5.704696 0.811732 21.891480
Ti 6.163614 -0.611122 19.587114
Ti 6.421600 3.002450 12.674015
Ti 6.880518 1.579596 10.369649
Ti 6.421600 3.002450 17.282748
Ti 6.880518 1.579596 14.978381
Ti 6.421600 3.002450 21.891480
Ti 6.880518 1.579596 19.587114
Ti 7.138504 5.193169 12.674015
Ti 7.597423 3.770314 10.369649
Ti 7.138504 5.193169 17.282748
Ti 7.597423 3.770314 14.978381
Ti 7.138504 5.193169 21.891480
Ti 7.597423 3.770314 19.587114
