54
A
Ti 0.170631 1.799488 3.456391
Ti 0.587512 0.384566 1.152130
Ti 0.170631 1.799488 8.064913
Ti 0.587512 0.384566 5.760652
Ti 0.170631 1.799488 12.673435
Ti 0.587512 0.384566 10.369174
Ti 0.928774 3.983541 3.456391
Ti 1.345655 2.568619 1.152130
Ti 0.928774 3.983541 8.064913
Ti 1.345655 2.568619 5.760652
Ti 0.928774 3.983541 12.673435
Ti 1.345655 2.568619 10.369174
Ti 1.686918 6.167594 3.456391
Ti 2.103798 4.752672 1.152130
Ti 1.686918 6.167594 8.064913
Ti 2.103798 4.752672 5.760652
Ti 1.686918 6.167594 12.673435
Ti 2.103798 4.752672 10.369174
Ti 2.955659 1.292573 8.064913
Ti 3.372539 -0.122349 5.760652
Ti 2.955659 1.292573 12.673435
Ti 3.372539 -0.122349 10.369174
Ti 2.955659 1.292573 17.281957
Ti 3.372539 -0.122349 14.977696
Ti 3.713802 3.476626 8.064913
Ti 4.130683 2.061704 5.760652
Ti 3.713802 3.476626 12.673435
Ti 4.130683 2.061704 10.369174
Ti 3.713802 3.476626 17.281957
Ti 4.130683 2.061704 14.977696
Ti 4.471945 5.660679 8.064913
Ti 4.888826 4.245758 5.760652
Ti 4.471945 5.660679 12.673435
Ti 4.888826 4.245758 10.369174
Ti 4.471945 5.660679 17.281957
Ti 4.888826 4.245758 14.977696
Ti 5.740686 0.785659 12.673435
Ti 6.157567 -0.629263 10.369174
Ti 5.740686 0.785659 17.281957
Ti 6.157567 -0.629263 14.977696
Ti 5.740686 0.785659 21.890479
Ti 6.157567 -0.629263 19.586218
Ti 6.498830 2.969712 12.673435
Ti 6.915710 1.554790 10.369174
Ti 6.498830 2.969712 17.281957
Ti 6.915710 1.554790 14.977696
Ti 6.498830 2.969712 21.890479
Ti 6.915710 1.554790 19.586218
Ti 7.256973 5.153765 12.673435
Ti 7.673853 3.738843 10.369174
Ti 7.256973 5.153765 17.281957
Ti 7.673853 3.738843 14.977696
Ti 7.256973 5.153765 21.890479
Ti 7.673853 3.738843 19.586218
