54
A
Ti 1.901531 1.472473 3.450381
Ti 0.658690 0.458309 1.150127
Ti 1.901531 1.472473 8.050889
Ti 0.658690 0.458309 5.750635
Ti 1.901531 1.472473 12.651397
Ti 0.658690 0.458309 10.351143
Ti 1.784030 4.266886 -1.150127
Ti 0.541190 3.252722 -3.450381
Ti 1.784030 4.266886 3.450381
Ti 0.541190 3.252722 1.150127
Ti 1.784030 4.266886 8.050889
Ti 0.541190 3.252722 5.750635
Ti 1.666530 7.061299 -5.750635
Ti 0.423689 6.047135 -8.050889
Ti 1.666530 7.061299 -1.150127
Ti 0.423689 6.047135 -3.450381
Ti 1.666530 7.061299 3.450381
Ti 0.423689 6.047135 1.150127
Ti 4.579252 0.608841 8.050889
Ti 3.336411 -0.405323 5.750635
Ti 4.579252 0.608841 12.651397
Ti 3.336411 -0.405323 10.351143
Ti 4.579252 0.608841 17.251906
Ti 3.336411 -0.405323 14.951652
Ti 4.461752 3.403254 3.450381
Ti 3.218911 2.389090 1.150127
Ti 4.461752 3.403254 8.050889
Ti 3.218911 2.389090 5.750635
Ti 4.461752 3.403254 12.651397
Ti 3.218911 2.389090 10.351143
Ti 4.344251 6.197667 -1.150127
Ti 3.101411 5.183503 -3.450381
Ti 4.344251 6.197667 3.450381
Ti 3.101411 5.183503 1.150127
Ti 4.344251 6.197667 8.050889
Ti 3.101411 5.183503 5.750635
Ti 7.256974 -0.254791 12.651397
Ti 6.014133 -1.268955 10.351143
Ti 7.256974 -0.254791 17.251906
Ti 6.014133 -1.268955 14.951652
Ti 7.256974 -0.254791 21.852414
Ti 6.014133 -1.268955 19.552160
Ti 7.139473 2.539622 8.050889
Ti 5.896632 1.525458 5.750635
Ti 7.139473 2.539622 12.651397
Ti 5.896632 1.525458 10.351143
Ti 7.139473 2.539622 17.251906
Ti 5.896632 1.525458 14.951652
Ti 7.021973 5.334035 3.450381
Ti 5.779132 4.319871 1.150127
Ti 7.021973 5.334035 8.050889
Ti 5.779132 4.319871 5.750635
Ti 7.021973 5.334035 12.651397
Ti 5.779132 4.319871 10.351143
