54
A
Ti 1.511292 1.724374 3.455601
Ti 0.657427 0.426354 1.151867
Ti 1.511292 1.724374 8.063068
Ti 0.657427 0.426354 5.759334
Ti 1.511292 1.724374 12.670535
Ti 0.657427 0.426354 10.366802
Ti 0.909102 4.428953 -1.151867
Ti 0.055237 3.130933 -3.455601
Ti 0.909102 4.428953 3.455601
Ti 0.055237 3.130933 1.151867
Ti 0.909102 4.428953 8.063068
Ti 0.055237 3.130933 5.759334
Ti 0.306912 7.133532 -5.759334
Ti -0.546952 5.835511 -8.063068
Ti 0.306912 7.133532 -1.151867
Ti -0.546952 5.835511 -3.455601
Ti 0.306912 7.133532 3.455601
Ti -0.546952 5.835511 1.151867
Ti 4.282200 1.170523 8.063068
Ti 3.428335 -0.127497 5.759334
Ti 4.282200 1.170523 12.670535
Ti 3.428335 -0.127497 10.366802
Ti 4.282200 1.170523 17.278003
Ti 3.428335 -0.127497 14.974269
Ti 3.680010 3.875102 3.455601
Ti 2.826146 2.577082 1.151867
Ti 3.680010 3.875102 8.063068
Ti 2.826146 2.577082 5.759334
Ti 3.680010 3.875102 12.670535
Ti 2.826146 2.577082 10.366802
Ti 3.077821 6.579681 -1.151867
Ti 2.223956 5.281660 -3.455601
Ti 3.077821 6.579681 3.455601
Ti 2.223956 5.281660 1.151867
Ti 3.077821 6.579681 8.063068
Ti 2.223956 5.281660 5.759334
Ti 7.053108 0.616672 12.670535
Ti 6.199244 -0.681348 10.366802
Ti 7.053108 0.616672 17.278003
Ti 6.199244 -0.681348 14.974269
Ti 7.053108 0.616672 21.885470
Ti 6.199244 -0.681348 19.581736
Ti 6.450919 3.321251 8.063068
Ti 5.597054 2.023231 5.759334
Ti 6.450919 3.321251 12.670535
Ti 5.597054 2.023231 10.366802
Ti 6.450919 3.321251 17.278003
Ti 5.597054 2.023231 14.974269
Ti 5.848729 6.025830 3.455601
Ti 4.994864 4.727809 1.151867
Ti 5.848729 6.025830 8.063068
Ti 4.994864 4.727809 5.759334
Ti 5.848729 6.025830 12.670535
Ti 4.994864 4.727809 10.366802
