54
A
Ti 1.062671 1.967525 3.461136
Ti 0.690818 0.416479 1.153712
Ti 1.062671 1.967525 8.075985
Ti 0.690818 0.416479 5.768560
Ti 1.062671 1.967525 12.690833
Ti 0.690818 0.416479 10.383409
Ti -0.053583 4.576825 -1.153712
Ti -0.425436 3.025779 -3.461136
Ti -0.053583 4.576825 3.461136
Ti -0.425436 3.025779 1.153712
Ti -0.053583 4.576825 8.075985
Ti -0.425436 3.025779 5.768560
Ti -1.169837 7.186125 -5.768560
Ti -1.541690 5.635079 -8.075985
Ti -1.169837 7.186125 -1.153712
Ti -1.541690 5.635079 -3.461136
Ti -1.169837 7.186125 3.461136
Ti -1.541690 5.635079 1.153712
Ti 3.932414 1.742230 8.075985
Ti 3.560561 0.191184 5.768560
Ti 3.932414 1.742230 12.690833
Ti 3.560561 0.191184 10.383409
Ti 3.932414 1.742230 17.305681
Ti 3.560561 0.191184 14.998257
Ti 2.816160 4.351530 3.461136
Ti 2.444307 2.800484 1.153712
Ti 2.816160 4.351530 8.075985
Ti 2.444307 2.800484 5.768560
Ti 2.816160 4.351530 12.690833
Ti 2.444307 2.800484 10.383409
Ti 1.699906 6.960830 -1.153712
Ti 1.328053 5.409784 -3.461136
Ti 1.699906 6.960830 3.461136
Ti 1.328053 5.409784 1.153712
Ti 1.699906 6.960830 8.075985
Ti 1.328053 5.409784 5.768560
Ti 6.802157 1.516935 12.690833
Ti 6.430304 -0.034111 10.383409
Ti 6.802157 1.516935 17.305681
Ti 6.430304 -0.034111 14.998257
Ti 6.802157 1.516935 21.920530
Ti 6.430304 -0.034111 19.613105
Ti 5.685903 4.126235 8.075985
Ti 5.314050 2.575189 5.768560
Ti 5.685903 4.126235 12.690833
Ti 5.314050 2.575189 10.383409
Ti 5.685903 4.126235 17.305681
Ti 5.314050 2.575189 14.998257
Ti 4.569649 6.735535 3.461136
Ti 4.197796 5.184489 1.153712
Ti 4.569649 6.735535 8.075985
Ti 4.197796 5.184489 5.768560
Ti 4.569649 6.735535 12.690833
Ti 4.197796 5.184489 10.383409
