54
A
Ti 1.207519 1.893771 3.459396
Ti 0.676471 0.416919 1.153132
Ti 1.207519 1.893771 8.071925
Ti 0.676471 0.416919 5.765661
Ti 1.207519 1.893771 12.684454
Ti 0.676471 0.416919 10.378189
Ti 0.252828 4.533015 -1.153132
Ti -0.278220 3.056163 -3.459396
Ti 0.252828 4.533015 3.459396
Ti -0.278220 3.056163 1.153132
Ti 0.252828 4.533015 8.071925
Ti -0.278220 3.056163 5.765661
Ti -0.701863 7.172260 -5.765661
Ti -1.232911 5.695408 -8.071925
Ti -0.701863 7.172260 -1.153132
Ti -1.232911 5.695408 -3.459396
Ti -0.701863 7.172260 3.459396
Ti -1.232911 5.695408 1.153132
Ti 4.046199 1.565215 8.071925
Ti 3.515152 0.088363 5.765661
Ti 4.046199 1.565215 12.684454
Ti 3.515152 0.088363 10.378189
Ti 4.046199 1.565215 17.296982
Ti 3.515152 0.088363 14.990718
Ti 3.091508 4.204460 3.459396
Ti 2.560461 2.727608 1.153132
Ti 3.091508 4.204460 8.071925
Ti 2.560461 2.727608 5.765661
Ti 3.091508 4.204460 12.684454
Ti 2.560461 2.727608 10.378189
Ti 2.136818 6.843704 -1.153132
Ti 1.605770 5.366852 -3.459396
Ti 2.136818 6.843704 3.459396
Ti 1.605770 5.366852 1.153132
Ti 2.136818 6.843704 8.071925
Ti 1.605770 5.366852 5.765661
Ti 6.884880 1.236659 12.684454
Ti 6.353833 -0.240193 10.378189
Ti 6.884880 1.236659 17.296982
Ti 6.353833 -0.240193 14.990718
Ti 6.884880 1.236659 21.909511
Ti 6.353833 -0.240193 19.603247
Ti 5.930189 3.875904 8.071925
Ti 5.399142 2.399052 5.765661
Ti 5.930189 3.875904 12.684454
Ti 5.399142 2.399052 10.378189
Ti 5.930189 3.875904 17.296982
Ti 5.399142 2.399052 14.990718
Ti 4.975498 6.515149 3.459396
Ti 4.444451 5.038297 1.153132
Ti 4.975498 6.515149 8.071925
Ti 4.444451 5.038297 5.765661
Ti 4.975498 6.515149 12.684454
Ti 4.444451 5.038297 10.378189
