54
A
Ti 1.498970 1.731665 3.455759
Ti 0.657885 0.425728 1.151920
Ti 1.498970 1.731665 8.063437
Ti 0.657885 0.425728 5.759598
Ti 1.498970 1.731665 12.671115
Ti 0.657885 0.425728 10.367276
Ti 0.882093 4.433521 -1.151920
Ti 0.041008 3.127585 -3.455759
Ti 0.882093 4.433521 3.455759
Ti 0.041008 3.127585 1.151920
Ti 0.882093 4.433521 8.063437
Ti 0.041008 3.127585 5.759598
Ti 0.265216 7.135378 -5.759598
Ti -0.575869 5.829442 -8.063437
Ti 0.265216 7.135378 -1.151920
Ti -0.575869 5.829442 -3.455759
Ti 0.265216 7.135378 3.455759
Ti -0.575869 5.829442 1.151920
Ti 4.272702 1.187201 8.063437
Ti 3.431617 -0.118735 5.759598
Ti 4.272702 1.187201 12.671115
Ti 3.431617 -0.118735 10.367276
Ti 4.272702 1.187201 17.278793
Ti 3.431617 -0.118735 14.974954
Ti 3.655825 3.889058 3.455759
Ti 2.814740 2.583121 1.151920
Ti 3.655825 3.889058 8.063437
Ti 2.814740 2.583121 5.759598
Ti 3.655825 3.889058 12.671115
Ti 2.814740 2.583121 10.367276
Ti 3.038948 6.590914 -1.151920
Ti 2.197863 5.284978 -3.455759
Ti 3.038948 6.590914 3.455759
Ti 2.197863 5.284978 1.151920
Ti 3.038948 6.590914 8.063437
Ti 2.197863 5.284978 5.759598
Ti 7.046434 0.642737 12.671115
Ti 6.205349 -0.663199 10.367276
Ti 7.046434 0.642737 17.278793
Ti 6.205349 -0.663199 14.974954
Ti 7.046434 0.642737 21.886472
Ti 6.205349 -0.663199 19.582633
Ti 6.429557 3.344594 8.063437
Ti 5.588472 2.038658 5.759598
Ti 6.429557 3.344594 12.671115
Ti 5.588472 2.038658 10.367276
Ti 6.429557 3.344594 17.278793
Ti 5.588472 2.038658 14.974954
Ti 5.812680 6.046450 3.455759
Ti 4.971595 4.740514 1.151920
Ti 5.812680 6.046450 8.063437
Ti 4.971595 4.740514 5.759598
Ti 5.812680 6.046450 12.671115
Ti 4.971595 4.740514 10.367276
