54
A
Ti -0.678772 1.935685 3.459555
Ti 0.612138 0.381669 1.153185
Ti -0.678772 1.935685 8.072294
Ti 0.612138 0.381669 5.765924
Ti -0.678772 1.935685 12.685034
Ti 0.612138 0.381669 10.378664
Ti -0.745406 4.253039 3.459555
Ti 0.545504 2.699023 1.153185
Ti -0.745406 4.253039 8.072294
Ti 0.545504 2.699023 5.765924
Ti -0.745406 4.253039 12.685034
Ti 0.545504 2.699023 10.378664
Ti -0.812040 6.570394 3.459555
Ti 0.478870 5.016377 1.153185
Ti -0.812040 6.570394 8.072294
Ti 0.478870 5.016377 5.765924
Ti -0.812040 6.570394 12.685034
Ti 0.478870 5.016377 10.378664
Ti 2.162733 1.616517 8.072294
Ti 3.453642 0.062501 5.765924
Ti 2.162733 1.616517 12.685034
Ti 3.453642 0.062501 10.378664
Ti 2.162733 1.616517 17.297773
Ti 3.453642 0.062501 14.991403
Ti 2.096099 3.933871 8.072294
Ti 3.387008 2.379855 5.765924
Ti 2.096099 3.933871 12.685034
Ti 3.387008 2.379855 10.378664
Ti 2.096099 3.933871 17.297773
Ti 3.387008 2.379855 14.991403
Ti 2.029465 6.251225 8.072294
Ti 3.320374 4.697209 5.765924
Ti 2.029465 6.251225 12.685034
Ti 3.320374 4.697209 10.378664
Ti 2.029465 6.251225 17.297773
Ti 3.320374 4.697209 14.991403
Ti 5.004237 1.297349 12.685034
Ti 6.295147 -0.256668 10.378664
Ti 5.004237 1.297349 17.297773
Ti 6.295147 -0.256668 14.991403
Ti 5.004237 1.297349 21.910513
Ti 6.295147 -0.256668 19.604143
Ti 4.937603 3.614703 12.685034
Ti 6.228513 2.060686 10.378664
Ti 4.937603 3.614703 17.297773
Ti 6.228513 2.060686 14.991403
Ti 4.937603 3.614703 21.910513
Ti 6.228513 2.060686 19.604143
Ti 4.870969 5.932057 12.685034
Ti 6.161879 4.378041 10.378664
Ti 4.870969 5.932057 17.297773
Ti 6.161879 4.378041 14.991403
Ti 4.870969 5.932057 21.910513
Ti 6.161879 4.378041 19.604143
