54
A
Ti 1.075985 1.960921 3.460978
Ti 0.689368 0.416418 1.153659
Ti 1.075985 1.960921 8.075616
Ti 0.689368 0.416418 5.768297
Ti 1.075985 1.960921 12.690253
Ti 0.689368 0.416418 10.382934
Ti -0.025581 4.572944 -1.153659
Ti -0.412199 3.028441 -3.460978
Ti -0.025581 4.572944 3.460978
Ti -0.412199 3.028441 1.153659
Ti -0.025581 4.572944 8.075616
Ti -0.412199 3.028441 5.768297
Ti -1.127148 7.184966 -5.768297
Ti -1.513765 5.640463 -8.075616
Ti -1.127148 7.184966 -1.153659
Ti -1.513765 5.640463 -3.460978
Ti -1.127148 7.184966 3.460978
Ti -1.513765 5.640463 1.153659
Ti 3.942904 1.726239 8.075616
Ti 3.556287 0.181736 5.768297
Ti 3.942904 1.726239 12.690253
Ti 3.556287 0.181736 10.382934
Ti 3.942904 1.726239 17.304890
Ti 3.556287 0.181736 14.997572
Ti 2.841338 4.338261 3.460978
Ti 2.454721 2.793758 1.153659
Ti 2.841338 4.338261 8.075616
Ti 2.454721 2.793758 5.768297
Ti 2.841338 4.338261 12.690253
Ti 2.454721 2.793758 10.382934
Ti 1.739771 6.950283 -1.153659
Ti 1.353154 5.405780 -3.460978
Ti 1.739771 6.950283 3.460978
Ti 1.353154 5.405780 1.153659
Ti 1.739771 6.950283 8.075616
Ti 1.353154 5.405780 5.768297
Ti 6.809823 1.491556 12.690253
Ti 6.423206 -0.052947 10.382934
Ti 6.809823 1.491556 17.304890
Ti 6.423206 -0.052947 14.997572
Ti 6.809823 1.491556 21.919528
Ti 6.423206 -0.052947 19.612209
Ti 5.708257 4.103578 8.075616
Ti 5.321640 2.559075 5.768297
Ti 5.708257 4.103578 12.690253
Ti 5.321640 2.559075 10.382934
Ti 5.708257 4.103578 17.304890
Ti 5.321640 2.559075 14.997572
Ti 4.606691 6.715601 3.460978
Ti 4.220073 5.171098 1.153659
Ti 4.606691 6.715601 8.075616
Ti 4.220073 5.171098 5.768297
Ti 4.606691 6.715601 12.690253
Ti 4.220073 5.171098 10.382934
