54
A
Ti 1.935431 1.448483 3.449907
Ti 0.660381 0.462303 1.149969
Ti 1.935431 1.448483 8.049782
Ti 0.660381 0.462303 5.749844
Ti 1.935431 1.448483 12.649658
Ti 0.660381 0.462303 10.349720
Ti 1.861993 4.251063 -1.149969
Ti 0.586943 3.264883 -3.449907
Ti 1.861993 4.251063 3.449907
Ti 0.586943 3.264883 1.149969
Ti 1.861993 4.251063 8.049782
Ti 0.586943 3.264883 5.749844
Ti 1.788556 7.053643 -5.749844
Ti 0.513505 6.067463 -8.049782
Ti 1.788556 7.053643 -1.149969
Ti 0.513505 6.067463 -3.449907
Ti 1.788556 7.053643 3.449907
Ti 0.513505 6.067463 1.149969
Ti 4.604681 0.556689 8.049782
Ti 3.329631 -0.429490 5.749844
Ti 4.604681 0.556689 12.649658
Ti 3.329631 -0.429490 10.349720
Ti 4.604681 0.556689 17.249533
Ti 3.329631 -0.429490 14.949595
Ti 4.531243 3.359269 3.449907
Ti 3.256193 2.373090 1.149969
Ti 4.531243 3.359269 8.049782
Ti 3.256193 2.373090 5.749844
Ti 4.531243 3.359269 12.649658
Ti 3.256193 2.373090 10.349720
Ti 4.457805 6.161849 -1.149969
Ti 3.182755 5.175670 -3.449907
Ti 4.457805 6.161849 3.449907
Ti 3.182755 5.175670 1.149969
Ti 4.457805 6.161849 8.049782
Ti 3.182755 5.175670 5.749844
Ti 7.273931 -0.335105 12.649658
Ti 5.998881 -1.321284 10.349720
Ti 7.273931 -0.335105 17.249533
Ti 5.998881 -1.321284 14.949595
Ti 7.273931 -0.335105 21.849409
Ti 5.998881 -1.321284 19.549471
Ti 7.200493 2.467475 8.049782
Ti 5.925443 1.481296 5.749844
Ti 7.200493 2.467475 12.649658
Ti 5.925443 1.481296 10.349720
Ti 7.200493 2.467475 17.249533
Ti 5.925443 1.481296 14.949595
Ti 7.127055 5.270055 3.449907
Ti 5.852005 4.283876 1.149969
Ti 7.127055 5.270055 8.049782
Ti 5.852005 4.283876 5.749844
Ti 7.127055 5.270055 12.649658
Ti 5.852005 4.283876 10.349720
