54
A
Ti 1.957885 1.432388 3.449590
Ti 0.661654 0.465068 1.149863
Ti 1.957885 1.432388 8.049044
Ti 0.661654 0.465068 5.749317
Ti 1.957885 1.432388 12.648498
Ti 0.661654 0.465068 10.348771
Ti 1.913823 4.240413 -1.149863
Ti 0.617591 3.273092 -3.449590
Ti 1.913823 4.240413 3.449590
Ti 0.617591 3.273092 1.149863
Ti 1.913823 4.240413 8.049044
Ti 0.617591 3.273092 5.749317
Ti 1.869760 7.048437 -5.749317
Ti 0.573529 6.081117 -8.049044
Ti 1.869760 7.048437 -1.149863
Ti 0.573529 6.081117 -3.449590
Ti 1.869760 7.048437 3.449590
Ti 0.573529 6.081117 1.149863
Ti 4.621488 0.521820 8.049044
Ti 3.325256 -0.445501 5.749317
Ti 4.621488 0.521820 12.648498
Ti 3.325256 -0.445501 10.348771
Ti 4.621488 0.521820 17.247951
Ti 3.325256 -0.445501 14.948225
Ti 4.577425 3.329844 3.449590
Ti 3.281194 2.362524 1.149863
Ti 4.577425 3.329844 8.049044
Ti 3.281194 2.362524 5.749317
Ti 4.577425 3.329844 12.648498
Ti 3.281194 2.362524 10.348771
Ti 4.533362 6.137869 -1.149863
Ti 3.237131 5.170548 -3.449590
Ti 4.533362 6.137869 3.449590
Ti 3.237131 5.170548 1.149863
Ti 4.533362 6.137869 8.049044
Ti 3.237131 5.170548 5.749317
Ti 7.285090 -0.388749 12.648498
Ti 5.988858 -1.356069 10.348771
Ti 7.285090 -0.388749 17.247951
Ti 5.988858 -1.356069 14.948225
Ti 7.285090 -0.388749 21.847405
Ti 5.988858 -1.356069 19.547678
Ti 7.241027 2.419276 8.049044
Ti 5.944796 1.451955 5.749317
Ti 7.241027 2.419276 12.648498
Ti 5.944796 1.451955 10.348771
Ti 7.241027 2.419276 17.247951
Ti 5.944796 1.451955 14.948225
Ti 7.196964 5.227300 3.449590
Ti 5.900733 4.259980 1.149863
Ti 7.196964 5.227300 8.049044
Ti 5.900733 4.259980 5.749317
Ti 7.196964 5.227300 12.648498
Ti 5.900733 4.259980 10.348771
