54
A
Ti 1.297856 1.845564 3.458289
Ti 0.669180 0.418470 1.152763
Ti 1.297856 1.845564 8.069342
Ti 0.669180 0.418470 5.763816
Ti 1.297856 1.845564 12.680394
Ti 0.669180 0.418470 10.374868
Ti 0.445978 4.503865 -1.152763
Ti -0.182698 3.076770 -3.458289
Ti 0.445978 4.503865 3.458289
Ti -0.182698 3.076770 1.152763
Ti 0.445978 4.503865 8.069342
Ti -0.182698 3.076770 5.763816
Ti -0.405900 7.162165 -5.763816
Ti -1.034576 5.735071 -8.069342
Ti -0.405900 7.162165 -1.152763
Ti -1.034576 5.735071 -3.458289
Ti -0.405900 7.162165 3.458289
Ti -1.034576 5.735071 1.152763
Ti 4.116769 1.451297 8.069342
Ti 3.488094 0.024203 5.763816
Ti 4.116769 1.451297 12.680394
Ti 3.488094 0.024203 10.374868
Ti 4.116769 1.451297 17.291447
Ti 3.488094 0.024203 14.985920
Ti 3.264891 4.109598 3.458289
Ti 2.636216 2.682503 1.152763
Ti 3.264891 4.109598 8.069342
Ti 2.636216 2.682503 5.763816
Ti 3.264891 4.109598 12.680394
Ti 2.636216 2.682503 10.374868
Ti 2.413013 6.767899 -1.152763
Ti 1.784338 5.340804 -3.458289
Ti 2.413013 6.767899 3.458289
Ti 1.784338 5.340804 1.152763
Ti 2.413013 6.767899 8.069342
Ti 1.784338 5.340804 5.763816
Ti 6.935683 1.057031 12.680394
Ti 6.307008 -0.370064 10.374868
Ti 6.935683 1.057031 17.291447
Ti 6.307008 -0.370064 14.985920
Ti 6.935683 1.057031 21.902499
Ti 6.307008 -0.370064 19.596973
Ti 6.083805 3.715331 8.069342
Ti 5.455130 2.288237 5.763816
Ti 6.083805 3.715331 12.680394
Ti 5.455130 2.288237 10.374868
Ti 6.083805 3.715331 17.291447
Ti 5.455130 2.288237 14.985920
Ti 5.231927 6.373632 3.458289
Ti 4.603252 4.946537 1.152763
Ti 5.231927 6.373632 8.069342
Ti 4.603252 4.946537 5.763816
Ti 5.231927 6.373632 12.680394
Ti 4.603252 4.946537 10.374868
