54
A
Ti 1.726234 1.474681 3.450223
Ti 0.640225 0.449435 1.150074
Ti 1.726234 1.474681 8.050520
Ti 0.640225 0.449435 5.750372
Ti 1.726234 1.474681 12.650817
Ti 0.640225 0.449435 10.350669
Ti 4.092692 3.398798 3.450223
Ti 3.006683 2.373551 1.150074
Ti 4.092692 3.398798 8.050520
Ti 3.006683 2.373551 5.750372
Ti 4.092692 3.398798 12.650817
Ti 3.006683 2.373551 10.350669
Ti 6.459151 5.322914 3.450223
Ti 5.373142 4.297667 1.150074
Ti 6.459151 5.322914 8.050520
Ti 5.373142 4.297667 5.750372
Ti 6.459151 5.322914 12.650817
Ti 5.373142 4.297667 10.350669
Ti 4.401131 0.601662 8.050520
Ti 3.315122 -0.423585 5.750372
Ti 4.401131 0.601662 12.650817
Ti 3.315122 -0.423585 10.350669
Ti 4.401131 0.601662 17.251115
Ti 3.315122 -0.423585 14.950966
Ti 6.767590 2.525778 8.050520
Ti 5.681581 1.500532 5.750372
Ti 6.767590 2.525778 12.650817
Ti 5.681581 1.500532 10.350669
Ti 6.767590 2.525778 17.251115
Ti 5.681581 1.500532 14.950966
Ti 9.134048 4.449895 8.050520
Ti 8.048039 3.424648 5.750372
Ti 9.134048 4.449895 12.650817
Ti 8.048039 3.424648 10.350669
Ti 9.134048 4.449895 17.251115
Ti 8.048039 3.424648 14.950966
Ti 7.076029 -0.271357 12.650817
Ti 5.990020 -1.296604 10.350669
Ti 7.076029 -0.271357 17.251115
Ti 5.990020 -1.296604 14.950966
Ti 7.076029 -0.271357 21.851412
Ti 5.990020 -1.296604 19.551263
Ti 9.442487 1.652759 12.650817
Ti 8.356478 0.627512 10.350669
Ti 9.442487 1.652759 17.251115
Ti 8.356478 0.627512 14.950966
Ti 9.442487 1.652759 21.851412
Ti 8.356478 0.627512 19.551263
Ti 11.808946 3.576875 12.650817
Ti 10.722937 2.551629 10.350669
Ti 11.808946 3.576875 17.251115
Ti 10.722937 2.551629 14.950966
Ti 11.808946 3.576875 21.851412
Ti 10.722937 2.551629 19.551263
