54
A
Ti 1.194497 1.900576 3.459555
Ti 0.677630 0.416778 1.153185
Ti 1.194497 1.900576 8.072294
Ti 0.677630 0.416778 5.765924
Ti 1.194497 1.900576 12.685034
Ti 0.677630 0.416778 10.378664
Ti 0.225118 4.537099 -1.153185
Ti -0.291749 3.053300 -3.459555
Ti 0.225118 4.537099 3.459555
Ti -0.291749 3.053300 1.153185
Ti 0.225118 4.537099 8.072294
Ti -0.291749 3.053300 5.765924
Ti -0.744260 7.173622 -5.765924
Ti -1.261127 5.689823 -8.072294
Ti -0.744260 7.173622 -1.153185
Ti -1.261127 5.689823 -3.459555
Ti -0.744260 7.173622 3.459555
Ti -1.261127 5.689823 1.153185
Ti 4.036001 1.581408 8.072294
Ti 3.519134 0.097609 5.765924
Ti 4.036001 1.581408 12.685034
Ti 3.519134 0.097609 10.378664
Ti 4.036001 1.581408 17.297773
Ti 3.519134 0.097609 14.991403
Ti 3.066623 4.217931 3.459555
Ti 2.549756 2.734132 1.153185
Ti 3.066623 4.217931 8.072294
Ti 2.549756 2.734132 5.765924
Ti 3.066623 4.217931 12.685034
Ti 2.549756 2.734132 10.378664
Ti 2.097244 6.854453 -1.153185
Ti 1.580377 5.370654 -3.459555
Ti 2.097244 6.854453 3.459555
Ti 1.580377 5.370654 1.153185
Ti 2.097244 6.854453 8.072294
Ti 1.580377 5.370654 5.765924
Ti 6.877506 1.262240 12.685034
Ti 6.360639 -0.221559 10.378664
Ti 6.877506 1.262240 17.297773
Ti 6.360639 -0.221559 14.991403
Ti 6.877506 1.262240 21.910513
Ti 6.360639 -0.221559 19.604143
Ti 5.908127 3.898762 8.072294
Ti 5.391260 2.414964 5.765924
Ti 5.908127 3.898762 12.685034
Ti 5.391260 2.414964 10.378664
Ti 5.908127 3.898762 17.297773
Ti 5.391260 2.414964 14.991403
Ti 4.938749 6.535285 3.459555
Ti 4.421882 5.051486 1.153185
Ti 4.938749 6.535285 8.072294
Ti 4.421882 5.051486 5.765924
Ti 4.938749 6.535285 12.685034
Ti 4.421882 5.051486 10.378664
