54
A
Ti 0.927927 2.032456 3.462718
Ti 0.706925 0.418199 1.154239
Ti 0.927927 2.032456 8.079675
Ti 0.706925 0.418199 5.771197
Ti 0.927927 2.032456 12.696632
Ti 0.706925 0.418199 10.388154
Ti -0.335202 4.614534 -1.154239
Ti -0.556205 3.000277 -3.462718
Ti -0.335202 4.614534 3.462718
Ti -0.556205 3.000277 1.154239
Ti -0.335202 4.614534 8.079675
Ti -0.556205 3.000277 5.771197
Ti -1.598332 7.196611 -5.771197
Ti -1.819334 5.582354 -8.079675
Ti -1.598332 7.196611 -1.154239
Ti -1.819334 5.582354 -3.462718
Ti -1.598332 7.196611 3.462718
Ti -1.819334 5.582354 1.154239
Ti 3.825909 1.901034 8.079675
Ti 3.604906 0.286777 5.771197
Ti 3.825909 1.901034 12.696632
Ti 3.604906 0.286777 10.388154
Ti 3.825909 1.901034 17.313590
Ti 3.604906 0.286777 15.005111
Ti 2.562779 4.483111 3.462718
Ti 2.341777 2.868854 1.154239
Ti 2.562779 4.483111 8.079675
Ti 2.341777 2.868854 5.771197
Ti 2.562779 4.483111 12.696632
Ti 2.341777 2.868854 10.388154
Ti 1.299650 7.065189 -1.154239
Ti 1.078648 5.450932 -3.462718
Ti 1.299650 7.065189 3.462718
Ti 1.078648 5.450932 1.154239
Ti 1.299650 7.065189 8.079675
Ti 1.078648 5.450932 5.771197
Ti 6.723890 1.769612 12.696632
Ti 6.502888 0.155355 10.388154
Ti 6.723890 1.769612 17.313590
Ti 6.502888 0.155355 15.005111
Ti 6.723890 1.769612 21.930547
Ti 6.502888 0.155355 19.622068
Ti 5.460761 4.351689 8.079675
Ti 5.239759 2.737432 5.771197
Ti 5.460761 4.351689 12.696632
Ti 5.239759 2.737432 10.388154
Ti 5.460761 4.351689 17.313590
Ti 5.239759 2.737432 15.005111
Ti 4.197631 6.933766 3.462718
Ti 3.976629 5.319509 1.154239
Ti 4.197631 6.933766 8.079675
Ti 3.976629 5.319509 5.771197
Ti 4.197631 6.933766 12.696632
Ti 3.976629 5.319509 10.388154
