54
A
Ti 0.886935 2.051542 3.463192
Ti 0.712326 0.419109 1.154397
Ti 0.886935 2.051542 8.080782
Ti 0.712326 0.419109 5.771987
Ti 0.886935 2.051542 12.698372
Ti 0.712326 0.419109 10.389577
Ti -0.420257 4.625452 -1.154397
Ti -0.594866 2.993019 -3.463192
Ti -0.420257 4.625452 3.463192
Ti -0.594866 2.993019 1.154397
Ti -0.420257 4.625452 8.080782
Ti -0.594866 2.993019 5.771987
Ti -1.727449 7.199363 -5.771987
Ti -1.902058 5.566930 -8.080782
Ti -1.727449 7.199363 -1.154397
Ti -1.902058 5.566930 -3.463192
Ti -1.727449 7.199363 3.463192
Ti -1.902058 5.566930 1.154397
Ti 3.793388 1.948281 8.080782
Ti 3.618779 0.315848 5.771987
Ti 3.793388 1.948281 12.698372
Ti 3.618779 0.315848 10.389577
Ti 3.793388 1.948281 17.315962
Ti 3.618779 0.315848 15.007167
Ti 2.486196 4.522192 3.463192
Ti 2.311587 2.889759 1.154397
Ti 2.486196 4.522192 8.080782
Ti 2.311587 2.889759 5.771987
Ti 2.486196 4.522192 12.698372
Ti 2.311587 2.889759 10.389577
Ti 1.179004 7.096103 -1.154397
Ti 1.004395 5.463670 -3.463192
Ti 1.179004 7.096103 3.463192
Ti 1.004395 5.463670 1.154397
Ti 1.179004 7.096103 8.080782
Ti 1.004395 5.463670 5.771987
Ti 6.699841 1.845021 12.698372
Ti 6.525232 0.212588 10.389577
Ti 6.699841 1.845021 17.315962
Ti 6.525232 0.212588 15.007167
Ti 6.699841 1.845021 21.933552
Ti 6.525232 0.212588 19.624757
Ti 5.392649 4.418932 8.080782
Ti 5.218040 2.786499 5.771987
Ti 5.392649 4.418932 12.698372
Ti 5.218040 2.786499 10.389577
Ti 5.392649 4.418932 17.315962
Ti 5.218040 2.786499 15.007167
Ti 4.085457 6.992842 3.463192
Ti 3.910848 5.360409 1.154397
Ti 4.085457 6.992842 8.080782
Ti 3.910848 5.360409 5.771987
Ti 4.085457 6.992842 12.698372
Ti 3.910848 5.360409 10.389577
