54
A
Ti 1.802418 1.455914 3.449907
Ti 0.646518 0.454872 1.149969
Ti 1.802418 1.455914 8.049782
Ti 0.646518 0.454872 5.749844
Ti 1.802418 1.455914 12.649658
Ti 0.646518 0.454872 10.349720
Ti 4.251355 3.366700 3.449907
Ti 3.095454 2.365658 1.149969
Ti 4.251355 3.366700 8.049782
Ti 3.095454 2.365658 5.749844
Ti 4.251355 3.366700 12.649658
Ti 3.095454 2.365658 10.349720
Ti 6.700291 5.277486 3.449907
Ti 5.544390 4.276444 1.149969
Ti 6.700291 5.277486 8.049782
Ti 5.544390 4.276444 5.749844
Ti 6.700291 5.277486 12.649658
Ti 5.544390 4.276444 10.349720
Ti 4.471668 0.564120 8.049782
Ti 3.315768 -0.436922 5.749844
Ti 4.471668 0.564120 12.649658
Ti 3.315768 -0.436922 10.349720
Ti 4.471668 0.564120 17.249533
Ti 3.315768 -0.436922 14.949595
Ti 6.920605 2.474906 8.049782
Ti 5.764704 1.473864 5.749844
Ti 6.920605 2.474906 12.649658
Ti 5.764704 1.473864 10.349720
Ti 6.920605 2.474906 17.249533
Ti 5.764704 1.473864 14.949595
Ti 9.369541 4.385693 8.049782
Ti 8.213640 3.384650 5.749844
Ti 9.369541 4.385693 12.649658
Ti 8.213640 3.384650 10.349720
Ti 9.369541 4.385693 17.249533
Ti 8.213640 3.384650 14.949595
Ti 7.140918 -0.327674 12.649658
Ti 5.985017 -1.328716 10.349720
Ti 7.140918 -0.327674 17.249533
Ti 5.985017 -1.328716 14.949595
Ti 7.140918 -0.327674 21.849409
Ti 5.985017 -1.328716 19.549471
Ti 9.589854 1.583113 12.649658
Ti 8.433954 0.582070 10.349720
Ti 9.589854 1.583113 17.249533
Ti 8.433954 0.582070 14.949595
Ti 9.589854 1.583113 21.849409
Ti 8.433954 0.582070 19.549471
Ti 12.038791 3.493899 12.649658
Ti 10.882890 2.492856 10.349720
Ti 12.038791 3.493899 17.249533
Ti 10.882890 2.492856 14.949595
Ti 12.038791 3.493899 21.849409
Ti 10.882890 2.492856 19.549471
