54
A
Ti 1.878785 1.488365 3.450697
Ti 0.657709 0.455746 1.150232
Ti 1.878785 1.488365 8.051627
Ti 0.657709 0.455746 5.751162
Ti 1.878785 1.488365 12.652557
Ti 0.657709 0.455746 10.352092
Ti 1.731909 4.277334 -1.150232
Ti 0.510833 3.244715 -3.450697
Ti 1.731909 4.277334 3.450697
Ti 0.510833 3.244715 1.150232
Ti 1.731909 4.277334 8.051627
Ti 0.510833 3.244715 5.751162
Ti 1.585034 7.066303 -5.751162
Ti 0.363958 6.033684 -8.051627
Ti 1.585034 7.066303 -1.150232
Ti 0.363958 6.033684 -3.450697
Ti 1.585034 7.066303 3.450697
Ti 0.363958 6.033684 1.150232
Ti 4.562154 0.643508 8.051627
Ti 3.341078 -0.389111 5.751162
Ti 4.562154 0.643508 12.652557
Ti 3.341078 -0.389111 10.352092
Ti 4.562154 0.643508 17.253487
Ti 3.341078 -0.389111 14.953022
Ti 4.415278 3.432476 3.450697
Ti 3.194202 2.399858 1.150232
Ti 4.415278 3.432476 8.051627
Ti 3.194202 2.399858 5.751162
Ti 4.415278 3.432476 12.652557
Ti 3.194202 2.399858 10.352092
Ti 4.268403 6.221445 -1.150232
Ti 3.047327 5.188826 -3.450697
Ti 4.268403 6.221445 3.450697
Ti 3.047327 5.188826 1.150232
Ti 4.268403 6.221445 8.051627
Ti 3.047327 5.188826 5.751162
Ti 7.245523 -0.201350 12.652557
Ti 6.024447 -1.233968 10.352092
Ti 7.245523 -0.201350 17.253487
Ti 6.024447 -1.233968 14.953022
Ti 7.245523 -0.201350 21.854417
Ti 6.024447 -1.233968 19.553952
Ti 7.098647 2.587619 8.051627
Ti 5.877571 1.555000 5.751162
Ti 7.098647 2.587619 12.652557
Ti 5.877571 1.555000 10.352092
Ti 7.098647 2.587619 17.253487
Ti 5.877571 1.555000 14.953022
Ti 6.951772 5.376588 3.450697
Ti 5.730696 4.343969 1.150232
Ti 6.951772 5.376588 8.051627
Ti 5.730696 4.343969 5.751162
Ti 6.951772 5.376588 12.652557
Ti 5.730696 4.343969 10.352092
