54
A
Ti 1.878253 1.436941 3.449590
Ti 0.653161 0.460515 1.149863
Ti 1.878253 1.436941 8.049044
Ti 0.653161 0.460515 5.749317
Ti 1.878253 1.436941 12.648498
Ti 0.653161 0.460515 10.348771
Ti 4.409667 3.334397 3.449590
Ti 3.184575 2.357971 1.149863
Ti 4.409667 3.334397 8.049044
Ti 3.184575 2.357971 5.749317
Ti 4.409667 3.334397 12.648498
Ti 3.184575 2.357971 10.348771
Ti 6.941081 5.231853 3.449590
Ti 5.715989 4.255427 1.149863
Ti 6.941081 5.231853 8.049044
Ti 5.715989 4.255427 5.749317
Ti 6.941081 5.231853 12.648498
Ti 5.715989 4.255427 10.348771
Ti 4.541855 0.526373 8.049044
Ti 3.316763 -0.450054 5.749317
Ti 4.541855 0.526373 12.648498
Ti 3.316763 -0.450054 10.348771
Ti 4.541855 0.526373 17.247951
Ti 3.316763 -0.450054 14.948225
Ti 7.073269 2.423829 8.049044
Ti 5.848177 1.447402 5.749317
Ti 7.073269 2.423829 12.648498
Ti 5.848177 1.447402 10.348771
Ti 7.073269 2.423829 17.247951
Ti 5.848177 1.447402 14.948225
Ti 9.604683 4.321285 8.049044
Ti 8.379591 3.344858 5.749317
Ti 9.604683 4.321285 12.648498
Ti 8.379591 3.344858 10.348771
Ti 9.604683 4.321285 17.247951
Ti 8.379591 3.344858 14.948225
Ti 7.205457 -0.384196 12.648498
Ti 5.980365 -1.360622 10.348771
Ti 7.205457 -0.384196 17.247951
Ti 5.980365 -1.360622 14.948225
Ti 7.205457 -0.384196 21.847405
Ti 5.980365 -1.360622 19.547678
Ti 9.736871 1.513260 12.648498
Ti 8.511779 0.536834 10.348771
Ti 9.736871 1.513260 17.247951
Ti 8.511779 0.536834 14.948225
Ti 9.736871 1.513260 21.847405
Ti 8.511779 0.536834 19.547678
Ti 12.268285 3.410716 12.648498
Ti 11.043193 2.434290 10.348771
Ti 12.268285 3.410716 17.247951
Ti 11.043193 2.434290 14.948225
Ti 12.268285 3.410716 21.847405
Ti 11.043193 2.434290 19.547678
