54
A
Ti -1.698881 2.066859 3.463192
Ti 0.683754 0.403792 1.154397
Ti -1.698881 2.066859 8.080782
Ti 0.683754 0.403792 5.771987
Ti -1.698881 2.066859 12.698372
Ti 0.683754 0.403792 10.389577
Ti -2.714009 4.537509 3.463192
Ti -0.331374 2.874442 1.154397
Ti -2.714009 4.537509 8.080782
Ti -0.331374 2.874442 5.771987
Ti -2.714009 4.537509 12.698372
Ti -0.331374 2.874442 10.389577
Ti -3.729137 7.008160 3.463192
Ti -1.346502 5.345092 1.154397
Ti -3.729137 7.008160 8.080782
Ti -1.346502 5.345092 5.771987
Ti -3.729137 7.008160 12.698372
Ti -1.346502 5.345092 10.389577
Ti 1.207572 1.963598 8.080782
Ti 3.590207 0.300531 5.771987
Ti 1.207572 1.963598 12.698372
Ti 3.590207 0.300531 10.389577
Ti 1.207572 1.963598 17.315962
Ti 3.590207 0.300531 15.007167
Ti 0.192444 4.434249 8.080782
Ti 2.575079 2.771182 5.771987
Ti 0.192444 4.434249 12.698372
Ti 2.575079 2.771182 10.389577
Ti 0.192444 4.434249 17.315962
Ti 2.575079 2.771182 15.007167
Ti -0.822684 6.904899 8.080782
Ti 1.559951 5.241832 5.771987
Ti -0.822684 6.904899 12.698372
Ti 1.559951 5.241832 10.389577
Ti -0.822684 6.904899 17.315962
Ti 1.559951 5.241832 15.007167
Ti 4.114025 1.860338 12.698372
Ti 6.496660 0.197271 10.389577
Ti 4.114025 1.860338 17.315962
Ti 6.496660 0.197271 15.007167
Ti 4.114025 1.860338 21.933552
Ti 6.496660 0.197271 19.624757
Ti 3.098897 4.330988 12.698372
Ti 5.481532 2.667921 10.389577
Ti 3.098897 4.330988 17.315962
Ti 5.481532 2.667921 15.007167
Ti 3.098897 4.330988 21.933552
Ti 5.481532 2.667921 19.624757
Ti 2.083769 6.801639 12.698372
Ti 4.466404 5.138572 10.389577
Ti 2.083769 6.801639 17.315962
Ti 4.466404 5.138572 15.007167
Ti 2.083769 6.801639 21.933552
Ti 4.466404 5.138572 19.624757
