54
A
Ti -2.203133 2.119968 3.464932
Ti 0.734378 0.423997 1.154977
Ti -2.203133 2.119968 8.084842
Ti 0.734378 0.423997 5.774887
Ti -2.203133 2.119968 12.704751
Ti 0.734378 0.423997 10.394797
Ti -3.671888 4.663934 3.464932
Ti -0.734377 2.967963 1.154977
Ti -3.671888 4.663934 8.084842
Ti -0.734377 2.967963 5.774887
Ti -3.671888 4.663934 12.704751
Ti -0.734377 2.967963 10.394797
Ti -5.140643 7.207900 3.464932
Ti -2.203133 5.511929 1.154977
Ti -5.140643 7.207900 8.084842
Ti -2.203133 5.511929 5.774887
Ti -5.140643 7.207900 12.704751
Ti -2.203133 5.511929 10.394797
Ti 0.734382 2.119968 8.084842
Ti 3.671893 0.423997 5.774887
Ti 0.734382 2.119968 12.704751
Ti 3.671893 0.423997 10.394797
Ti 0.734382 2.119968 17.324661
Ti 3.671893 0.423997 15.014706
Ti -0.734373 4.663934 8.084842
Ti 2.203138 2.967963 5.774887
Ti -0.734373 4.663934 12.704751
Ti 2.203138 2.967963 10.394797
Ti -0.734373 4.663934 17.324661
Ti 2.203138 2.967963 15.014706
Ti -2.203128 7.207900 8.084842
Ti 0.734383 5.511929 5.774887
Ti -2.203128 7.207900 12.704751
Ti 0.734383 5.511929 10.394797
Ti -2.203128 7.207900 17.324661
Ti 0.734383 5.511929 15.014706
Ti 3.671898 2.119968 12.704751
Ti 6.609409 0.423997 10.394797
Ti 3.671898 2.119968 17.324661
Ti 6.609409 0.423997 15.014706
Ti 3.671898 2.119968 21.944571
Ti 6.609409 0.423997 19.634616
Ti 2.203143 4.663934 12.704751
Ti 5.140653 2.967963 10.394797
Ti 2.203143 4.663934 17.324661
Ti 5.140653 2.967963 15.014706
Ti 2.203143 4.663934 21.944571
Ti 5.140653 2.967963 19.634616
Ti 0.734387 7.207900 12.704751
Ti 3.671898 5.511929 10.394797
Ti 0.734387 7.207900 17.324661
Ti 3.671898 5.511929 15.014706
Ti 0.734387 7.207900 21.944571
Ti 3.671898 5.511929 19.634616
