54
A
Ti -0.038436 1.835467 3.457182
Ti 0.590385 0.381911 1.152394
Ti -0.038436 1.835467 8.066758
Ti 0.590385 0.381911 5.761970
Ti -0.038436 1.835467 12.676335
Ti 0.590385 0.381911 10.371546
Ti 0.513513 4.052846 3.457182
Ti 1.142334 2.599290 1.152394
Ti 0.513513 4.052846 8.066758
Ti 1.142334 2.599290 5.761970
Ti 0.513513 4.052846 12.676335
Ti 1.142334 2.599290 10.371546
Ti 1.065462 6.270224 3.457182
Ti 1.694283 4.816668 1.152394
Ti 1.065462 6.270224 8.066758
Ti 1.694283 4.816668 5.761970
Ti 1.065462 6.270224 12.676335
Ti 1.694283 4.816668 10.371546
Ti 2.760711 1.375489 8.066758
Ti 3.389532 -0.078067 5.761970
Ti 2.760711 1.375489 12.676335
Ti 3.389532 -0.078067 10.371546
Ti 2.760711 1.375489 17.285911
Ti 3.389532 -0.078067 14.981123
Ti 3.312660 3.592868 8.066758
Ti 3.941481 2.139312 5.761970
Ti 3.312660 3.592868 12.676335
Ti 3.941481 2.139312 10.371546
Ti 3.312660 3.592868 17.285911
Ti 3.941481 2.139312 14.981123
Ti 3.864608 5.810246 8.066758
Ti 4.493429 4.356690 5.761970
Ti 3.864608 5.810246 12.676335
Ti 4.493429 4.356690 10.371546
Ti 3.864608 5.810246 17.285911
Ti 4.493429 4.356690 14.981123
Ti 5.559858 0.915511 12.676335
Ti 6.188679 -0.538045 10.371546
Ti 5.559858 0.915511 17.285911
Ti 6.188679 -0.538045 14.981123
Ti 5.559858 0.915511 21.895487
Ti 6.188679 -0.538045 19.590699
Ti 6.111806 3.132890 12.676335
Ti 6.740627 1.679334 10.371546
Ti 6.111806 3.132890 17.285911
Ti 6.740627 1.679334 14.981123
Ti 6.111806 3.132890 21.895487
Ti 6.740627 1.679334 19.590699
Ti 6.663755 5.350268 12.676335
Ti 7.292576 3.896712 10.371546
Ti 6.663755 5.350268 17.285911
Ti 7.292576 3.896712 14.981123
Ti 6.663755 5.350268 21.895487
Ti 7.292576 3.896712 19.590699
