54
A
Ti 1.912860 1.464496 3.450223
Ti 0.659224 0.459620 1.150074
Ti 1.912860 1.464496 8.050520
Ti 0.659224 0.459620 5.750372
Ti 1.912860 1.464496 12.650817
Ti 0.659224 0.459620 10.350669
Ti 1.810047 4.261632 -1.150074
Ti 0.556412 3.256756 -3.450223
Ti 1.810047 4.261632 3.450223
Ti 0.556412 3.256756 1.150074
Ti 1.810047 4.261632 8.050520
Ti 0.556412 3.256756 5.750372
Ti 1.707234 7.058767 -5.750372
Ti 0.453599 6.053891 -8.050520
Ti 1.707234 7.058767 -1.150074
Ti 0.453599 6.053891 -3.450223
Ti 1.707234 7.058767 3.450223
Ti 0.453599 6.053891 1.150074
Ti 4.587758 0.591477 8.050520
Ti 3.334122 -0.413399 5.750372
Ti 4.587758 0.591477 12.650817
Ti 3.334122 -0.413399 10.350669
Ti 4.587758 0.591477 17.251115
Ti 3.334122 -0.413399 14.950966
Ti 4.484945 3.388612 3.450223
Ti 3.231309 2.383736 1.150074
Ti 4.484945 3.388612 8.050520
Ti 3.231309 2.383736 5.750372
Ti 4.484945 3.388612 12.650817
Ti 3.231309 2.383736 10.350669
Ti 4.382132 6.185748 -1.150074
Ti 3.128496 5.180872 -3.450223
Ti 4.382132 6.185748 3.450223
Ti 3.128496 5.180872 1.150074
Ti 4.382132 6.185748 8.050520
Ti 3.128496 5.180872 5.750372
Ti 7.262655 -0.281542 12.650817
Ti 6.009020 -1.286419 10.350669
Ti 7.262655 -0.281542 17.251115
Ti 6.009020 -1.286419 14.950966
Ti 7.262655 -0.281542 21.851412
Ti 6.009020 -1.286419 19.551263
Ti 7.159842 2.515593 8.050520
Ti 5.906207 1.510717 5.750372
Ti 7.159842 2.515593 12.650817
Ti 5.906207 1.510717 10.350669
Ti 7.159842 2.515593 17.251115
Ti 5.906207 1.510717 14.950966
Ti 7.057029 5.312729 3.450223
Ti 5.803394 4.307852 1.150074
Ti 7.057029 5.312729 8.050520
Ti 5.803394 4.307852 5.750372
Ti 7.057029 5.312729 12.650817
Ti 5.803394 4.307852 10.350669
