54
A
Ti 1.424428 1.774982 3.456708
Ti 0.661245 0.422401 1.152236
Ti 1.424428 1.774982 8.065651
Ti 0.661245 0.422401 5.761179
Ti 1.424428 1.774982 12.674595
Ti 0.661245 0.422401 10.370123
Ti 0.719425 4.460505 -1.152236
Ti -0.043757 3.107924 -3.456708
Ti 0.719425 4.460505 3.456708
Ti -0.043757 3.107924 1.152236
Ti 0.719425 4.460505 8.065651
Ti -0.043757 3.107924 5.761179
Ti 0.014423 7.146029 -5.761179
Ti -0.748760 5.793447 -8.065651
Ti 0.014423 7.146029 -1.152236
Ti -0.748760 5.793447 -3.456708
Ti 0.014423 7.146029 3.456708
Ti -0.748760 5.793447 1.152236
Ti 4.215103 1.286843 8.065651
Ti 3.451920 -0.065739 5.761179
Ti 4.215103 1.286843 12.674595
Ti 3.451920 -0.065739 10.370123
Ti 4.215103 1.286843 17.283538
Ti 3.451920 -0.065739 14.979067
Ti 3.510101 3.972366 3.456708
Ti 2.746918 2.619784 1.152236
Ti 3.510101 3.972366 8.065651
Ti 2.746918 2.619784 5.761179
Ti 3.510101 3.972366 12.674595
Ti 2.746918 2.619784 10.370123
Ti 2.805098 6.657889 -1.152236
Ti 2.041915 5.305307 -3.456708
Ti 2.805098 6.657889 3.456708
Ti 2.041915 5.305307 1.152236
Ti 2.805098 6.657889 8.065651
Ti 2.041915 5.305307 5.761179
Ti 7.005778 0.798703 12.674595
Ti 6.242596 -0.553879 10.370123
Ti 7.005778 0.798703 17.283538
Ti 6.242596 -0.553879 14.979067
Ti 7.005778 0.798703 21.892482
Ti 6.242596 -0.553879 19.588010
Ti 6.300776 3.484226 8.065651
Ti 5.537593 2.131644 5.761179
Ti 6.300776 3.484226 12.674595
Ti 5.537593 2.131644 10.370123
Ti 6.300776 3.484226 17.283538
Ti 5.537593 2.131644 14.979067
Ti 5.595773 6.169749 3.456708
Ti 4.832591 4.817167 1.152236
Ti 5.595773 6.169749 8.065651
Ti 4.832591 4.817167 5.761179
Ti 5.595773 6.169749 12.674595
Ti 4.832591 4.817167 10.370123
