54
A
Ti 1.535847 1.709733 3.455284
Ti 0.656599 0.427665 1.151761
Ti 1.535847 1.709733 8.062330
Ti 0.656599 0.427665 5.758807
Ti 1.535847 1.709733 12.669375
Ti 0.656599 0.427665 10.365853
Ti 0.963033 4.419757 -1.151761
Ti 0.083784 3.137688 -3.455284
Ti 0.963033 4.419757 3.455284
Ti 0.083784 3.137688 1.151761
Ti 0.963033 4.419757 8.062330
Ti 0.083784 3.137688 5.758807
Ti 0.390218 7.129780 -5.758807
Ti -0.489030 5.847711 -8.062330
Ti 0.390218 7.129780 -1.151761
Ti -0.489030 5.847711 -3.455284
Ti 0.390218 7.129780 3.455284
Ti -0.489030 5.847711 1.151761
Ti 4.301108 1.137108 8.062330
Ti 3.421860 -0.144961 5.758807
Ti 4.301108 1.137108 12.669375
Ti 3.421860 -0.144961 10.365853
Ti 4.301108 1.137108 17.276421
Ti 3.421860 -0.144961 14.972898
Ti 3.728293 3.847131 3.455284
Ti 2.849045 2.565062 1.151761
Ti 3.728293 3.847131 8.062330
Ti 2.849045 2.565062 5.758807
Ti 3.728293 3.847131 12.669375
Ti 2.849045 2.565062 10.365853
Ti 3.155479 6.557154 -1.151761
Ti 2.276230 5.275086 -3.455284
Ti 3.155479 6.557154 3.455284
Ti 2.276230 5.275086 1.151761
Ti 3.155479 6.557154 8.062330
Ti 2.276230 5.275086 5.758807
Ti 7.066369 0.564482 12.669375
Ti 6.187120 -0.717586 10.365853
Ti 7.066369 0.564482 17.276421
Ti 6.187120 -0.717586 14.972898
Ti 7.066369 0.564482 21.883467
Ti 6.187120 -0.717586 19.579944
Ti 6.493554 3.274505 8.062330
Ti 5.614306 1.992437 5.758807
Ti 6.493554 3.274505 12.669375
Ti 5.614306 1.992437 10.365853
Ti 6.493554 3.274505 17.276421
Ti 5.614306 1.992437 14.972898
Ti 5.920740 5.984529 3.455284
Ti 5.041491 4.702460 1.151761
Ti 5.920740 5.984529 8.062330
Ti 5.041491 4.702460 5.758807
Ti 5.920740 5.984529 12.669375
Ti 5.041491 4.702460 10.365853
