54
A
Ti 1.786633 1.551127 3.451963
Ti 0.654951 0.446304 1.150654
Ti 1.786633 1.551127 8.054580
Ti 0.654951 0.446304 5.753271
Ti 1.786633 1.551127 12.657197
Ti 0.654951 0.446304 10.355888
Ti 1.522257 4.318318 -1.150654
Ti 0.390575 3.213495 -3.451963
Ti 1.522257 4.318318 3.451963
Ti 0.390575 3.213495 1.150654
Ti 1.522257 4.318318 8.054580
Ti 0.390575 3.213495 5.753271
Ti 1.257881 7.085509 -5.753271
Ti 0.126199 5.980686 -8.054580
Ti 1.257881 7.085509 -1.150654
Ti 0.126199 5.980686 -3.451963
Ti 1.257881 7.085509 3.451963
Ti 0.126199 5.980686 1.150654
Ti 4.492593 0.781369 8.054580
Ti 3.360911 -0.323455 5.753271
Ti 4.492593 0.781369 12.657197
Ti 3.360911 -0.323455 10.355888
Ti 4.492593 0.781369 17.259814
Ti 3.360911 -0.323455 14.958505
Ti 4.228217 3.548559 3.451963
Ti 3.096535 2.443736 1.150654
Ti 4.228217 3.548559 8.054580
Ti 3.096535 2.443736 5.753271
Ti 4.228217 3.548559 12.657197
Ti 3.096535 2.443736 10.355888
Ti 3.963841 6.315750 -1.150654
Ti 2.832159 5.210927 -3.451963
Ti 3.963841 6.315750 3.451963
Ti 2.832159 5.210927 1.150654
Ti 3.963841 6.315750 8.054580
Ti 2.832159 5.210927 5.753271
Ti 7.198553 0.011610 12.657197
Ti 6.066871 -1.093214 10.355888
Ti 7.198553 0.011610 17.259814
Ti 6.066871 -1.093214 14.958505
Ti 7.198553 0.011610 21.862431
Ti 6.066871 -1.093214 19.561122
Ti 6.934177 2.778800 8.054580
Ti 5.802495 1.673977 5.753271
Ti 6.934177 2.778800 12.657197
Ti 5.802495 1.673977 10.355888
Ti 6.934177 2.778800 17.259814
Ti 5.802495 1.673977 14.958505
Ti 6.669801 5.545991 3.451963
Ti 5.538119 4.441168 1.150654
Ti 6.669801 5.545991 8.054580
Ti 5.538119 4.441168 5.753271
Ti 6.669801 5.545991 12.657197
Ti 5.538119 4.441168 10.355888
