54
A
Ti 1.128949 1.934303 3.460345
Ti 0.683859 0.416376 1.153448
Ti 1.128949 1.934303 8.074139
Ti 0.683859 0.416376 5.767242
Ti 1.128949 1.934303 12.687933
Ti 0.683859 0.416376 10.381036
Ti 0.086132 4.557214 -1.153448
Ti -0.358957 3.039287 -3.460345
Ti 0.086132 4.557214 3.460345
Ti -0.358957 3.039287 1.153448
Ti 0.086132 4.557214 8.074139
Ti -0.358957 3.039287 5.767242
Ti -0.956684 7.180126 -5.767242
Ti -1.401773 5.662199 -8.074139
Ti -0.956684 7.180126 -1.153448
Ti -1.401773 5.662199 -3.460345
Ti -0.956684 7.180126 3.460345
Ti -1.401773 5.662199 1.153448
Ti 3.984572 1.662071 8.074139
Ti 3.539483 0.144144 5.767242
Ti 3.984572 1.662071 12.687933
Ti 3.539483 0.144144 10.381036
Ti 3.984572 1.662071 17.301727
Ti 3.539483 0.144144 14.994830
Ti 2.941756 4.284983 3.460345
Ti 2.496667 2.767056 1.153448
Ti 2.941756 4.284983 8.074139
Ti 2.496667 2.767056 5.767242
Ti 2.941756 4.284983 12.687933
Ti 2.496667 2.767056 10.381036
Ti 1.898940 6.907894 -1.153448
Ti 1.453850 5.389967 -3.460345
Ti 1.898940 6.907894 3.460345
Ti 1.453850 5.389967 1.153448
Ti 1.898940 6.907894 8.074139
Ti 1.453850 5.389967 5.767242
Ti 6.840196 1.389840 12.687933
Ti 6.395107 -0.128087 10.381036
Ti 6.840196 1.389840 17.301727
Ti 6.395107 -0.128087 14.994830
Ti 6.840196 1.389840 21.915521
Ti 6.395107 -0.128087 19.608624
Ti 5.797380 4.012751 8.074139
Ti 5.352290 2.494824 5.767242
Ti 5.797380 4.012751 12.687933
Ti 5.352290 2.494824 10.381036
Ti 5.797380 4.012751 17.301727
Ti 5.352290 2.494824 14.994830
Ti 4.754564 6.635662 3.460345
Ti 4.309474 5.117735 1.153448
Ti 4.754564 6.635662 8.074139
Ti 4.309474 5.117735 5.767242
Ti 4.754564 6.635662 12.687933
Ti 4.309474 5.117735 10.381036
