108
A
C -0.000000 0.000000 3.395000
C 0.000000 0.000000 0.000000
C 2.470000 1.425913 3.428950
C 1.235000 0.713170 0.033950
C 0.000000 0.000000 10.185000
C 0.000000 0.000000 6.790000
C 2.470000 1.425913 10.218950
C 1.235000 0.713170 6.823950
C 0.000000 0.000000 16.975000
C 0.000000 0.000000 13.580000
C 2.470000 1.425913 17.008950
C 1.235000 0.713170 13.613950
C 1.235000 2.139083 3.395000
C 1.235000 2.139083 -0.000000
C 3.705000 3.564995 3.428950
C 2.470000 2.852253 0.033950
C 1.235000 2.139083 10.185000
C 1.235000 2.139083 6.790000
C 3.705000 3.564995 10.218950
C 2.470000 2.852253 6.823950
C 1.235000 2.139083 16.975000
C 1.235000 2.139083 13.580000
C 3.705000 3.564995 17.008950
C 2.470000 2.852253 13.613950
C 2.470000 4.278165 3.395000
C 2.470000 4.278165 -0.000000
C 4.940000 5.704078 3.428950
C 3.705000 4.991336 0.033950
C 2.470000 4.278165 10.185000
C 2.470000 4.278165 6.790000
C 4.940000 5.704078 10.218950
C 3.705000 4.991336 6.823950
C 2.470000 4.278165 16.975000
C 2.470000 4.278165 13.580000
C 4.940000 5.704078 17.008950
C 3.705000 4.991336 13.613950
C 2.470000 0.000000 3.395000
C 2.470000 0.000000 -0.000000
C 4.940000 1.425913 3.428950
C 3.705000 0.713170 0.033950
C 2.470000 0.000000 10.185000
C 2.470000 0.000000 6.790000
C 4.940000 1.425913 10.218950
C 3.705000 0.713170 6.823950
C 2.470000 0.000000 16.975000
C 2.470000 0.000000 13.580000
C 4.940000 1.425913 17.008950
C 3.705000 0.713170 13.613950
C 3.705000 2.139083 3.395000
C 3.705000 2.139083 -0.000000
C 6.175000 3.564995 3.428950
C 4.940000 2.852253 0.033950
C 3.705000 2.139083 10.185000
C 3.705000 2.139083 6.790000
C 6.175000 3.564995 10.218950
C 4.940000 2.852253 6.823950
C 3.705000 2.139083 16.975000
C 3.705000 2.139083 13.580000
C 6.175000 3.564995 17.008950
C 4.940000 2.852253 13.613950
C 4.940000 4.278165 3.395000
C 4.940000 4.278165 -0.000000
C 7.410000 5.704078 3.428950
C 6.175000 4.991336 0.033950
C 4.940000 4.278165 10.185000
C 4.940000 4.278165 6.790000
C 7.410000 5.704078 10.218950
C 6.175000 4.991336 6.823950
C 4.940000 4.278165 16.975000
C 4.940000 4.278165 13.580000
C 7.410000 5.704078 17.008950
C 6.175000 4.991336 13.613950
C 4.940000 0.000000 3.395000
C 4.940000 0.000000 -0.000000
C 7.410000 1.425913 3.428950
C 6.175000 0.713170 0.033950
C 4.940000 0.000000 10.185000
C 4.940000 0.000000 6.790000
C 7.410000 1.425913 10.218950
C 6.175000 0.713170 6.823950
C 4.940000 0.000000 16.975000
C 4.940000 0.000000 13.580000
C 7.410000 1.425913 17.008950
C 6.175000 0.713170 13.613950
C 6.175000 2.139083 3.395000
C 6.175000 2.139083 -0.000000
C 8.645000 3.564995 3.428950
C 7.410000 2.852253 0.033950
C 6.175000 2.139083 10.185000
C 6.175000 2.139083 6.790000
C 8.645000 3.564995 10.218950
C 7.410000 2.852253 6.823950
C 6.175000 2.139083 16.975000
C 6.175000 2.139083 13.580000
C 8.645000 3.564995 17.008950
C 7.410000 2.852253 13.613950
C 7.410000 4.278165 3.395000
C 7.410000 4.278165 -0.000000
C 9.880000 5.704078 3.428950
C 8.645000 4.991336 0.033950
C 7.410000 4.278165 10.185000
C 7.410000 4.278165 6.790000
C 9.880000 5.704078 10.218950
C 8.645000 4.991336 6.823950
C 7.410000 4.278165 16.975000
C 7.410000 4.278165 13.580000
C 9.880000 5.704078 17.008950
C 8.645000 4.991336 13.613950
