108
A
C 2.830247 1.697259 0.226591
C 2.539392 1.522837 2.140781
C 1.249189 0.749070 1.071842
C 0.540691 0.324296 3.206757
C 2.830247 1.697259 5.442548
C 2.539392 1.522837 7.356738
C 1.249189 0.749070 6.287799
C 0.540691 0.324296 8.422714
C 2.830247 1.697259 10.658505
C 2.539392 1.522837 12.572695
C 1.249189 0.749070 11.503757
C 0.540691 0.324296 13.638671
C 3.975938 3.843990 -2.139623
C 3.685082 3.669568 -0.225433
C 2.394879 2.895801 -1.294372
C 1.686382 2.471027 0.840543
C 3.975938 3.843990 3.076334
C 3.685082 3.669568 4.990524
C 2.394879 2.895801 3.921585
C 1.686382 2.471027 6.056500
C 3.975938 3.843990 8.292291
C 3.685082 3.669568 10.206481
C 2.394879 2.895801 9.137542
C 1.686382 2.471027 11.272457
C 5.121628 5.990721 -4.505837
C 4.830773 5.816299 -2.591648
C 3.540569 5.042532 -3.660586
C 2.832072 4.617758 -1.525671
C 5.121628 5.990721 0.710120
C 4.830773 5.816299 2.624309
C 3.540569 5.042532 1.555371
C 2.832072 4.617758 3.690286
C 5.121628 5.990721 5.926077
C 4.830773 5.816299 7.840266
C 3.540569 5.042532 6.771328
C 2.832072 4.617758 8.906243
C 5.264316 1.697259 0.699834
C 4.973461 1.522837 2.614024
C 3.683257 0.749070 1.545085
C 2.974760 0.324296 3.680000
C 5.264316 1.697259 5.915791
C 4.973461 1.522837 7.829981
C 3.683257 0.749070 6.761042
C 2.974760 0.324296 8.895957
C 5.264316 1.697259 11.131748
C 4.973461 1.522837 13.045938
C 3.683257 0.749070 11.976999
C 2.974760 0.324296 14.111914
C 6.410007 3.843990 -1.666380
C 6.119151 3.669568 0.247809
C 4.828948 2.895801 -0.821129
C 4.120451 2.471027 1.313786
C 6.410007 3.843990 3.549577
C 6.119151 3.669568 5.463766
C 4.828948 2.895801 4.394828
C 4.120451 2.471027 6.529743
C 6.410007 3.843990 8.765534
C 6.119151 3.669568 10.679724
C 4.828948 2.895801 9.610785
C 4.120451 2.471027 11.745700
C 7.555697 5.990721 -4.032594
C 7.264842 5.816299 -2.118405
C 5.974638 5.042532 -3.187343
C 5.266141 4.617758 -1.052429
C 7.555697 5.990721 1.183363
C 7.264842 5.816299 3.097552
C 5.974638 5.042532 2.028614
C 5.266141 4.617758 4.163528
C 7.555697 5.990721 6.399320
C 7.264842 5.816299 8.313509
C 5.974638 5.042532 7.244571
C 5.266141 4.617758 9.379486
C 7.698385 1.697259 1.173077
C 7.407530 1.522837 3.087266
C 6.117326 0.749070 2.018328
C 5.408829 0.324296 4.153243
C 7.698385 1.697259 6.389034
C 7.407530 1.522837 8.303224
C 6.117326 0.749070 7.234285
C 5.408829 0.324296 9.369200
C 7.698385 1.697259 11.604991
C 7.407530 1.522837 13.519181
C 6.117326 0.749070 12.450242
C 5.408829 0.324296 14.585157
C 8.844076 3.843990 -1.193137
C 8.553220 3.669568 0.721052
C 7.263017 2.895801 -0.347886
C 6.554520 2.471027 1.787028
C 8.844076 3.843990 4.022820
C 8.553220 3.669568 5.937009
C 7.263017 2.895801 4.868071
C 6.554520 2.471027 7.002986
C 8.844076 3.843990 9.238777
C 8.553220 3.669568 11.152966
C 7.263017 2.895801 10.084028
C 6.554520 2.471027 12.218943
C 9.989766 5.990721 -3.559351
C 9.698911 5.816299 -1.645162
C 8.408707 5.042532 -2.714100
C 7.700210 4.617758 -0.579186
C 9.989766 5.990721 1.656606
C 9.698911 5.816299 3.570795
C 8.408707 5.042532 2.501857
C 7.700210 4.617758 4.636771
C 9.989766 5.990721 6.872563
C 9.698911 5.816299 8.786752
C 8.408707 5.042532 7.717814
C 7.700210 4.617758 9.852728
