108
A
C 1.860161 3.117898 1.352457
C 1.872264 1.885826 2.278424
C 0.615606 0.636992 0.463165
C 0.644674 -0.611847 3.168442
C 1.860161 3.117898 4.983701
C 1.872264 1.885826 5.909669
C 0.615606 0.636992 4.094410
C 0.644674 -0.611847 6.799687
C 1.860161 3.117898 8.614946
C 1.872264 1.885826 9.540913
C 0.615606 0.636992 7.725654
C 0.644674 -0.611847 10.430931
C 1.835461 5.632332 1.352457
C 1.847564 4.400260 2.278424
C 0.590906 3.151426 0.463165
C 0.619974 1.902587 3.168442
C 1.835461 5.632332 4.983701
C 1.847564 4.400260 5.909669
C 0.590906 3.151426 4.094410
C 0.619974 1.902587 6.799687
C 1.835461 5.632332 8.614946
C 1.847564 4.400260 9.540913
C 0.590906 3.151426 7.725654
C 0.619974 1.902587 10.430931
C 1.810761 8.146766 1.352457
C 1.822864 6.914694 2.278424
C 0.566206 5.665860 0.463165
C 0.595274 4.417021 3.168442
C 1.810761 8.146766 4.983701
C 1.822864 6.914694 5.909669
C 0.566206 5.665860 4.094410
C 0.595274 4.417021 6.799687
C 1.810761 8.146766 8.614946
C 1.822864 6.914694 9.540913
C 0.566206 5.665860 7.725654
C 0.595274 4.417021 10.430931
C 4.381214 3.117898 1.352457
C 4.393317 1.885826 2.278424
C 3.136658 0.636992 0.463165
C 3.165726 -0.611847 3.168442
C 4.381214 3.117898 4.983701
C 4.393317 1.885826 5.909669
C 3.136658 0.636992 4.094410
C 3.165726 -0.611847 6.799687
C 4.381214 3.117898 8.614946
C 4.393317 1.885826 9.540913
C 3.136658 0.636992 7.725654
C 3.165726 -0.611847 10.430931
C 4.356514 5.632332 1.352457
C 4.368617 4.400260 2.278424
C 3.111958 3.151426 0.463165
C 3.141026 1.902587 3.168442
C 4.356514 5.632332 4.983701
C 4.368617 4.400260 5.909669
C 3.111958 3.151426 4.094410
C 3.141026 1.902587 6.799687
C 4.356514 5.632332 8.614946
C 4.368617 4.400260 9.540913
C 3.111958 3.151426 7.725654
C 3.141026 1.902587 10.430931
C 4.331814 8.146766 1.352457
C 4.343917 6.914694 2.278424
C 3.087258 5.665860 0.463165
C 3.116326 4.417021 3.168442
C 4.331814 8.146766 4.983701
C 4.343917 6.914694 5.909669
C 3.087258 5.665860 4.094410
C 3.116326 4.417021 6.799687
C 4.331814 8.146766 8.614946
C 4.343917 6.914694 9.540913
C 3.087258 5.665860 7.725654
C 3.116326 4.417021 10.430931
C 6.902266 3.117898 1.352457
C 6.914369 1.885826 2.278424
C 5.657710 0.636992 0.463165
C 5.686778 -0.611847 3.168442
C 6.902266 3.117898 4.983701
C 6.914369 1.885826 5.909669
C 5.657710 0.636992 4.094410
C 5.686778 -0.611847 6.799687
C 6.902266 3.117898 8.614946
C 6.914369 1.885826 9.540913
C 5.657710 0.636992 7.725654
C 5.686778 -0.611847 10.430931
C 6.877566 5.632332 1.352457
C 6.889669 4.400260 2.278424
C 5.633010 3.151426 0.463165
C 5.662078 1.902587 3.168442
C 6.877566 5.632332 4.983701
C 6.889669 4.400260 5.909669
C 5.633010 3.151426 4.094410
C 5.662078 1.902587 6.799687
C 6.877566 5.632332 8.614946
C 6.889669 4.400260 9.540913
C 5.633010 3.151426 7.725654
C 5.662078 1.902587 10.430931
C 6.852866 8.146766 1.352457
C 6.864969 6.914694 2.278424
C 5.608310 5.665860 0.463165
C 5.637378 4.417021 3.168442
C 6.852866 8.146766 4.983701
C 6.864969 6.914694 5.909669
C 5.608310 5.665860 4.094410
C 5.637378 4.417021 6.799687
C 6.852866 8.146766 8.614946
C 6.864969 6.914694 9.540913
C 5.608310 5.665860 7.725654
C 5.637378 4.417021 10.430931
