108
A
C 1.401783 2.551105 1.555702
C 1.544055 1.788158 3.162929
C 0.337863 0.739134 0.807868
C 0.833779 -0.309976 3.927780
C 1.401783 2.551105 6.282841
C 1.544055 1.788158 7.890068
C 0.337863 0.739134 5.535007
C 0.833779 -0.309976 8.654919
C 1.401783 2.551105 11.009980
C 1.544055 1.788158 12.617207
C 0.337863 0.739134 10.262146
C 0.833779 -0.309976 13.382058
C 0.957183 4.935315 1.555702
C 1.099455 4.172368 3.162929
C -0.106737 3.123344 0.807868
C 0.389179 2.074234 3.927780
C 0.957183 4.935315 6.282841
C 1.099455 4.172368 7.890068
C -0.106737 3.123344 5.535007
C 0.389179 2.074234 8.654919
C 0.957183 4.935315 11.009980
C 1.099455 4.172368 12.617207
C -0.106737 3.123344 10.262146
C 0.389179 2.074234 13.382058
C 0.512583 7.319525 1.555702
C 0.654855 6.556578 3.162929
C -0.551337 5.507554 0.807868
C -0.055421 4.458444 3.927780
C 0.512583 7.319525 6.282841
C 0.654855 6.556578 7.890068
C -0.551337 5.507554 5.535007
C -0.055421 4.458444 8.654919
C 0.512583 7.319525 11.009980
C 0.654855 6.556578 12.617207
C -0.551337 5.507554 10.262146
C -0.055421 4.458444 13.382058
C 3.905124 2.551105 1.555702
C 4.047396 1.788158 3.162929
C 2.841204 0.739134 0.807868
C 3.337119 -0.309976 3.927780
C 3.905124 2.551105 6.282841
C 4.047396 1.788158 7.890068
C 2.841204 0.739134 5.535007
C 3.337119 -0.309976 8.654919
C 3.905124 2.551105 11.009980
C 4.047396 1.788158 12.617207
C 2.841204 0.739134 10.262146
C 3.337119 -0.309976 13.382058
C 3.460524 4.935315 1.555702
C 3.602796 4.172368 3.162929
C 2.396604 3.123344 0.807868
C 2.892519 2.074234 3.927780
C 3.460524 4.935315 6.282841
C 3.602796 4.172368 7.890068
C 2.396604 3.123344 5.535007
C 2.892519 2.074234 8.654919
C 3.460524 4.935315 11.009980
C 3.602796 4.172368 12.617207
C 2.396604 3.123344 10.262146
C 2.892519 2.074234 13.382058
C 3.015924 7.319525 1.555702
C 3.158196 6.556578 3.162929
C 1.952004 5.507554 0.807868
C 2.447919 4.458444 3.927780
C 3.015924 7.319525 6.282841
C 3.158196 6.556578 7.890068
C 1.952004 5.507554 5.535007
C 2.447919 4.458444 8.654919
C 3.015924 7.319525 11.009980
C 3.158196 6.556578 12.617207
C 1.952004 5.507554 10.262146
C 2.447919 4.458444 13.382058
C 6.408464 2.551105 1.555702
C 6.550736 1.788158 3.162929
C 5.344544 0.739134 0.807868
C 5.840460 -0.309976 3.927780
C 6.408464 2.551105 6.282841
C 6.550736 1.788158 7.890068
C 5.344544 0.739134 5.535007
C 5.840460 -0.309976 8.654919
C 6.408464 2.551105 11.009980
C 6.550736 1.788158 12.617207
C 5.344544 0.739134 10.262146
C 5.840460 -0.309976 13.382058
C 5.963864 4.935315 1.555702
C 6.106136 4.172368 3.162929
C 4.899944 3.123344 0.807868
C 5.395860 2.074234 3.927780
C 5.963864 4.935315 6.282841
C 6.106136 4.172368 7.890068
C 4.899944 3.123344 5.535007
C 5.395860 2.074234 8.654919
C 5.963864 4.935315 11.009980
C 6.106136 4.172368 12.617207
C 4.899944 3.123344 10.262146
C 5.395860 2.074234 13.382058
C 5.519264 7.319525 1.555702
C 5.661536 6.556578 3.162929
C 4.455344 5.507554 0.807868
C 4.951260 4.458444 3.927780
C 5.519264 7.319525 6.282841
C 5.661536 6.556578 7.890068
C 4.455344 5.507554 5.535007
C 4.951260 4.458444 8.654919
C 5.519264 7.319525 11.009980
C 5.661536 6.556578 12.617207
C 4.455344 5.507554 10.262146
C 4.951260 4.458444 13.382058
