108
A
C 2.815486 1.668594 0.718125
C 2.611957 1.547973 3.000699
C 1.338017 0.792894 1.268995
C 0.471130 0.279294 3.791699
C 2.815486 1.668594 6.418403
C 2.611957 1.547973 8.700977
C 1.338017 0.792894 6.969273
C 0.471130 0.279294 9.491977
C 2.815486 1.668594 12.118681
C 2.611957 1.547973 14.401255
C 1.338017 0.792894 12.669551
C 0.471130 0.279294 15.192255
C 3.988656 3.812972 -0.920023
C 3.785127 3.692350 1.362551
C 2.511187 2.937272 -0.369153
C 1.644301 2.423672 2.153551
C 3.988656 3.812972 4.780255
C 3.785127 3.692350 7.062829
C 2.511187 2.937272 5.331125
C 1.644301 2.423672 7.853829
C 3.988656 3.812972 10.480533
C 3.785127 3.692350 12.763107
C 2.511187 2.937272 11.031403
C 1.644301 2.423672 13.554107
C 5.161826 5.957349 -2.558172
C 4.958297 5.836728 -0.275597
C 3.684358 5.081650 -2.007301
C 2.817471 4.568050 0.515403
C 5.161826 5.957349 3.142106
C 4.958297 5.836728 5.424681
C 3.684358 5.081650 3.692977
C 2.817471 4.568050 6.215681
C 5.161826 5.957349 8.842384
C 4.958297 5.836728 11.124959
C 3.684358 5.081650 9.393255
C 2.817471 4.568050 11.915959
C 5.260610 1.668594 1.045755
C 5.057081 1.547973 3.328329
C 3.783142 0.792894 1.596625
C 2.916255 0.279294 4.119329
C 5.260610 1.668594 6.746033
C 5.057081 1.547973 9.028607
C 3.783142 0.792894 7.296903
C 2.916255 0.279294 9.819607
C 5.260610 1.668594 12.446311
C 5.057081 1.547973 14.728885
C 3.783142 0.792894 12.997181
C 2.916255 0.279294 15.519885
C 6.433781 3.812972 -0.592394
C 6.230252 3.692350 1.690181
C 4.956312 2.937272 -0.041523
C 4.089425 2.423672 2.481181
C 6.433781 3.812972 5.107884
C 6.230252 3.692350 7.390459
C 4.956312 2.937272 5.658755
C 4.089425 2.423672 8.181459
C 6.433781 3.812972 10.808162
C 6.230252 3.692350 13.090737
C 4.956312 2.937272 11.359033
C 4.089425 2.423672 13.881737
C 7.606951 5.957349 -2.230542
C 7.403422 5.836728 0.052032
C 6.129482 5.081650 -1.679672
C 5.262596 4.568050 0.843032
C 7.606951 5.957349 3.469736
C 7.403422 5.836728 5.752310
C 6.129482 5.081650 4.020606
C 5.262596 4.568050 6.543310
C 7.606951 5.957349 9.170014
C 7.403422 5.836728 11.452588
C 6.129482 5.081650 9.720884
C 5.262596 4.568050 12.243588
C 7.705735 1.668594 1.373384
C 7.502206 1.547973 3.655959
C 6.228266 0.792894 1.924255
C 5.361380 0.279294 4.446959
C 7.705735 1.668594 7.073662
C 7.502206 1.547973 9.356237
C 6.228266 0.792894 7.624533
C 5.361380 0.279294 10.147237
C 7.705735 1.668594 12.773940
C 7.502206 1.547973 15.056515
C 6.228266 0.792894 13.324810
C 5.361380 0.279294 15.847514
C 8.878905 3.812972 -0.264764
C 8.675376 3.692350 2.017810
C 7.401437 2.937272 0.286106
C 6.534550 2.423672 2.808810
C 8.878905 3.812972 5.435514
C 8.675376 3.692350 7.718088
C 7.401437 2.937272 5.986384
C 6.534550 2.423672 8.509088
C 8.878905 3.812972 11.135792
C 8.675376 3.692350 13.418366
C 7.401437 2.937272 11.686662
C 6.534550 2.423672 14.209366
C 10.052076 5.957349 -1.902912
C 9.848547 5.836728 0.379662
C 8.574607 5.081650 -1.352042
C 7.707720 4.568050 1.170662
C 10.052076 5.957349 3.797366
C 9.848547 5.836728 6.079940
C 8.574607 5.081650 4.348236
C 7.707720 4.568050 6.870940
C 10.052076 5.957349 9.497644
C 9.848547 5.836728 11.780218
C 8.574607 5.081650 10.048514
C 7.707720 4.568050 12.571218
