108
A
C 2.819266 1.675755 0.598922
C 2.593725 1.541694 2.782130
C 1.315660 0.781947 1.219659
C 0.488671 0.290536 3.645421
C 2.819266 1.675755 6.178120
C 2.593725 1.541694 8.361327
C 1.315660 0.781947 6.798856
C 0.488671 0.290536 9.224619
C 2.819266 1.675755 11.757318
C 2.593725 1.541694 13.940525
C 1.315660 0.781947 12.378054
C 0.488671 0.290536 14.803817
C 3.985567 3.820721 -1.221242
C 3.760025 3.686660 0.961965
C 2.481960 2.926913 -0.600506
C 1.654971 2.435502 1.825256
C 3.985567 3.820721 4.357955
C 3.760025 3.686660 6.541163
C 2.481960 2.926913 4.978692
C 1.654971 2.435502 7.404454
C 3.985567 3.820721 9.937153
C 3.760025 3.686660 12.120360
C 2.481960 2.926913 10.557889
C 1.654971 2.435502 12.983652
C 5.151867 5.965687 -3.041407
C 4.926326 5.831626 -0.858200
C 3.648260 5.071879 -2.420671
C 2.821272 4.580468 0.005092
C 5.151867 5.965687 2.537790
C 4.926326 5.831626 4.720998
C 3.648260 5.071879 3.158527
C 2.821272 4.580468 5.584289
C 5.151867 5.965687 8.116988
C 4.926326 5.831626 10.300196
C 3.648260 5.071879 8.737725
C 2.821272 4.580468 11.163487
C 5.261627 1.675755 0.962955
C 5.036086 1.541694 3.146163
C 3.758020 0.781947 1.583692
C 2.931032 0.290536 4.009454
C 5.261627 1.675755 6.542153
C 5.036086 1.541694 8.725360
C 3.758020 0.781947 7.162889
C 2.931032 0.290536 9.588652
C 5.261627 1.675755 12.121351
C 5.036086 1.541694 14.304558
C 3.758020 0.781947 12.742087
C 2.931032 0.290536 15.167850
C 6.427928 3.820721 -0.857210
C 6.202386 3.686660 1.325998
C 4.924321 2.926913 -0.236473
C 4.097332 2.435502 2.189289
C 6.427928 3.820721 4.721988
C 6.202386 3.686660 6.905196
C 4.924321 2.926913 5.342725
C 4.097332 2.435502 7.768487
C 6.427928 3.820721 10.301186
C 6.202386 3.686660 12.484393
C 4.924321 2.926913 10.921922
C 4.097332 2.435502 13.347685
C 7.594228 5.965687 -2.677374
C 7.368687 5.831626 -0.494167
C 6.090621 5.071879 -2.056638
C 5.263632 4.580468 0.369125
C 7.594228 5.965687 2.901823
C 7.368687 5.831626 5.085031
C 6.090621 5.071879 3.522560
C 5.263632 4.580468 5.948322
C 7.594228 5.965687 8.481021
C 7.368687 5.831626 10.664229
C 6.090621 5.071879 9.101758
C 5.263632 4.580468 11.527520
C 7.703988 1.675755 1.326988
C 7.478447 1.541694 3.510196
C 6.200381 0.781947 1.947725
C 5.373392 0.290536 4.373487
C 7.703988 1.675755 6.906186
C 7.478447 1.541694 9.089393
C 6.200381 0.781947 7.526922
C 5.373392 0.290536 9.952685
C 7.703988 1.675755 12.485384
C 7.478447 1.541694 14.668591
C 6.200381 0.781947 13.106120
C 5.373392 0.290536 15.531883
C 8.870288 3.820721 -0.493177
C 8.644747 3.686660 1.690031
C 7.366681 2.926913 0.127560
C 6.539693 2.435502 2.553322
C 8.870288 3.820721 5.086021
C 8.644747 3.686660 7.269229
C 7.366681 2.926913 5.706758
C 6.539693 2.435502 8.132520
C 8.870288 3.820721 10.665219
C 8.644747 3.686660 12.848426
C 7.366681 2.926913 11.285955
C 6.539693 2.435502 13.711718
C 10.036589 5.965687 -2.313341
C 9.811047 5.831626 -0.130134
C 8.532982 5.071879 -1.692605
C 7.705993 4.580468 0.733158
C 10.036589 5.965687 3.265856
C 9.811047 5.831626 5.449064
C 8.532982 5.071879 3.886593
C 7.705993 4.580468 6.312355
C 10.036589 5.965687 8.845054
C 9.811047 5.831626 11.028262
C 8.532982 5.071879 9.465790
C 7.705993 4.580468 11.891553
