108
A
C 1.244944 2.315125 1.615163
C 1.399257 1.745069 3.582172
C 0.200836 0.779504 0.990148
C 0.886315 -0.186180 4.233761
C 1.244944 2.315125 6.825785
C 1.399257 1.745069 8.792795
C 0.200836 0.779504 6.200771
C 0.886315 -0.186180 9.444383
C 1.244944 2.315125 12.036407
C 1.399257 1.745069 14.003417
C 0.200836 0.779504 11.411393
C 0.886315 -0.186180 14.655005
C 0.615094 4.641883 1.615163
C 0.769407 4.071827 3.582172
C -0.429014 3.106262 0.990148
C 0.256465 2.140578 4.233761
C 0.615094 4.641883 6.825785
C 0.769407 4.071827 8.792795
C -0.429014 3.106262 6.200771
C 0.256465 2.140578 9.444383
C 0.615094 4.641883 12.036407
C 0.769407 4.071827 14.003417
C -0.429014 3.106262 11.411393
C 0.256465 2.140578 14.655005
C -0.014756 6.968641 1.615163
C 0.139557 6.398586 3.582172
C -1.058864 5.433020 0.990148
C -0.373385 4.467337 4.233761
C -0.014756 6.968641 6.825785
C 0.139557 6.398586 8.792795
C -1.058864 5.433020 6.200771
C -0.373385 4.467337 9.444383
C -0.014756 6.968641 12.036407
C 0.139557 6.398586 14.003417
C -1.058864 5.433020 11.411393
C -0.373385 4.467337 14.655005
C 3.740470 2.315125 1.615163
C 3.894783 1.745069 3.582172
C 2.696362 0.779504 0.990148
C 3.381841 -0.186180 4.233761
C 3.740470 2.315125 6.825785
C 3.894783 1.745069 8.792795
C 2.696362 0.779504 6.200771
C 3.381841 -0.186180 9.444383
C 3.740470 2.315125 12.036407
C 3.894783 1.745069 14.003417
C 2.696362 0.779504 11.411393
C 3.381841 -0.186180 14.655005
C 3.110620 4.641883 1.615163
C 3.264933 4.071827 3.582172
C 2.066512 3.106262 0.990148
C 2.751991 2.140578 4.233761
C 3.110620 4.641883 6.825785
C 3.264933 4.071827 8.792795
C 2.066512 3.106262 6.200771
C 2.751991 2.140578 9.444383
C 3.110620 4.641883 12.036407
C 3.264933 4.071827 14.003417
C 2.066512 3.106262 11.411393
C 2.751991 2.140578 14.655005
C 2.480770 6.968641 1.615163
C 2.635083 6.398586 3.582172
C 1.436662 5.433020 0.990148
C 2.122141 4.467337 4.233761
C 2.480770 6.968641 6.825785
C 2.635083 6.398586 8.792795
C 1.436662 5.433020 6.200771
C 2.122141 4.467337 9.444383
C 2.480770 6.968641 12.036407
C 2.635083 6.398586 14.003417
C 1.436662 5.433020 11.411393
C 2.122141 4.467337 14.655005
C 6.235996 2.315125 1.615163
C 6.390310 1.745069 3.582172
C 5.191889 0.779504 0.990148
C 5.877368 -0.186180 4.233761
C 6.235996 2.315125 6.825785
C 6.390310 1.745069 8.792795
C 5.191889 0.779504 6.200771
C 5.877368 -0.186180 9.444383
C 6.235996 2.315125 12.036407
C 6.390310 1.745069 14.003417
C 5.191889 0.779504 11.411393
C 5.877368 -0.186180 14.655005
C 5.606146 4.641883 1.615163
C 5.760460 4.071827 3.582172
C 4.562039 3.106262 0.990148
C 5.247518 2.140578 4.233761
C 5.606146 4.641883 6.825785
C 5.760460 4.071827 8.792795
C 4.562039 3.106262 6.200771
C 5.247518 2.140578 9.444383
C 5.606146 4.641883 12.036407
C 5.760460 4.071827 14.003417
C 4.562039 3.106262 11.411393
C 5.247518 2.140578 14.655005
C 4.976296 6.968641 1.615163
C 5.130610 6.398586 3.582172
C 3.932189 5.433020 0.990148
C 4.617668 4.467337 4.233761
C 4.976296 6.968641 6.825785
C 5.130610 6.398586 8.792795
C 3.932189 5.433020 6.200771
C 4.617668 4.467337 9.444383
C 4.976296 6.968641 12.036407
C 5.130610 6.398586 14.003417
C 3.932189 5.433020 11.411393
C 4.617668 4.467337 14.655005
