108
A
C 2.843378 1.724546 -0.276732
C 2.471348 1.498904 1.359327
C 1.166288 0.707345 0.885025
C 0.605287 0.367138 2.651481
C 2.843378 1.724546 4.479120
C 2.471348 1.498904 6.115179
C 1.166288 0.707345 5.640877
C 0.605287 0.367138 7.407334
C 2.843378 1.724546 9.234973
C 2.471348 1.498904 10.871032
C 1.166288 0.707345 10.396729
C 0.605287 0.367138 12.163186
C 3.962963 3.873512 -3.334609
C 3.590932 3.647871 -1.698550
C 2.285873 2.856312 -2.172852
C 1.724872 2.516105 -0.406396
C 3.962963 3.873512 1.421244
C 3.590932 3.647871 3.057302
C 2.285873 2.856312 2.583000
C 1.724872 2.516105 4.349457
C 3.962963 3.873512 6.177096
C 3.590932 3.647871 7.813155
C 2.285873 2.856312 7.338852
C 1.724872 2.516105 9.105309
C 5.082547 6.022479 -6.392485
C 4.710517 5.796837 -4.756427
C 3.405457 5.005279 -5.230729
C 2.844456 4.665071 -3.464272
C 5.082547 6.022479 -1.636633
C 4.710517 5.796837 -0.000574
C 3.405457 5.005279 -0.474877
C 2.844456 4.665071 1.291580
C 5.082547 6.022479 3.119219
C 4.710517 5.796837 4.755278
C 3.405457 5.005279 4.280976
C 2.844456 4.665071 6.047432
C 5.266944 1.724546 0.334844
C 4.894914 1.498904 1.970902
C 3.589854 0.707345 1.496600
C 3.028853 0.367138 3.263057
C 5.266944 1.724546 5.090696
C 4.894914 1.498904 6.726755
C 3.589854 0.707345 6.252452
C 3.028853 0.367138 8.018909
C 5.266944 1.724546 9.846548
C 4.894914 1.498904 11.482607
C 3.589854 0.707345 11.008305
C 3.028853 0.367138 12.774761
C 6.386529 3.873512 -2.723033
C 6.014498 3.647871 -1.086974
C 4.709439 2.856312 -1.561277
C 4.148438 2.516105 0.205180
C 6.386529 3.873512 2.032819
C 6.014498 3.647871 3.668878
C 4.709439 2.856312 3.194576
C 4.148438 2.516105 4.961032
C 6.386529 3.873512 6.788671
C 6.014498 3.647871 8.424730
C 4.709439 2.856312 7.950428
C 4.148438 2.516105 9.716884
C 7.506114 6.022479 -5.780910
C 7.134083 5.796837 -4.144851
C 5.829023 5.005279 -4.619153
C 5.268022 4.665071 -2.852697
C 7.506114 6.022479 -1.025058
C 7.134083 5.796837 0.611001
C 5.829023 5.005279 0.136699
C 5.268022 4.665071 1.903155
C 7.506114 6.022479 3.730794
C 7.134083 5.796837 5.366853
C 5.829023 5.005279 4.892551
C 5.268022 4.665071 6.659007
C 7.690510 1.724546 0.946419
C 7.318480 1.498904 2.582478
C 6.013420 0.707345 2.108176
C 5.452419 0.367138 3.874632
C 7.690510 1.724546 5.702271
C 7.318480 1.498904 7.338330
C 6.013420 0.707345 6.864028
C 5.452419 0.367138 8.630484
C 7.690510 1.724546 10.458123
C 7.318480 1.498904 12.094182
C 6.013420 0.707345 11.619880
C 5.452419 0.367138 13.386337
C 8.810095 3.873512 -2.111458
C 8.438064 3.647871 -0.475399
C 7.133005 2.856312 -0.949701
C 6.572004 2.516105 0.816755
C 8.810095 3.873512 2.644394
C 8.438064 3.647871 4.280453
C 7.133005 2.856312 3.806151
C 6.572004 2.516105 5.572607
C 8.810095 3.873512 7.400247
C 8.438064 3.647871 9.036305
C 7.133005 2.856312 8.562003
C 6.572004 2.516105 10.328460
C 9.929680 6.022479 -5.169335
C 9.557649 5.796837 -3.533276
C 8.252589 5.005279 -4.007578
C 7.691588 4.665071 -2.241122
C 9.929680 6.022479 -0.413482
C 9.557649 5.796837 1.222576
C 8.252589 5.005279 0.748274
C 7.691588 4.665071 2.514731
C 9.929680 6.022479 4.342370
C 9.557649 5.796837 5.978429
C 8.252589 5.005279 5.504126
C 7.691588 4.665071 7.270583
