108
A
C 2.834488 1.705870 0.071475
C 2.517810 1.515285 1.890272
C 1.222853 0.735903 1.012797
C 0.561246 0.337815 3.031363
C 2.834488 1.705870 5.142136
C 2.517810 1.515285 6.960933
C 1.222853 0.735903 6.083458
C 0.561246 0.337815 8.102023
C 2.834488 1.705870 10.212797
C 2.517810 1.515285 12.031594
C 1.222853 0.735903 11.154119
C 0.561246 0.337815 13.172684
C 3.971934 3.853307 -2.513159
C 3.655257 3.662722 -0.694362
C 2.360299 2.883340 -1.571837
C 1.698693 2.485252 0.446729
C 3.971934 3.853307 2.557502
C 3.655257 3.662722 4.376299
C 2.360299 2.883340 3.498824
C 1.698693 2.485252 5.517389
C 3.971934 3.853307 7.628163
C 3.655257 3.662722 9.446960
C 2.360299 2.883340 8.569485
C 1.698693 2.485252 10.588050
C 5.109381 6.000744 -5.097793
C 4.792703 5.810159 -3.278996
C 3.497746 5.030777 -4.156471
C 2.836139 4.632689 -2.137905
C 5.109381 6.000744 -0.027132
C 4.792703 5.810159 1.791665
C 3.497746 5.030777 0.914190
C 2.836139 4.632689 2.932755
C 5.109381 6.000744 5.043529
C 4.792703 5.810159 6.862326
C 3.497746 5.030777 5.984851
C 2.836139 4.632689 8.003416
C 5.265240 1.705870 0.588402
C 4.948562 1.515285 2.407199
C 3.653605 0.735903 1.529724
C 2.991999 0.337815 3.548289
C 5.265240 1.705870 5.659063
C 4.948562 1.515285 7.477860
C 3.653605 0.735903 6.600385
C 2.991999 0.337815 8.618950
C 5.265240 1.705870 10.729724
C 4.948562 1.515285 12.548521
C 3.653605 0.735903 11.671045
C 2.991999 0.337815 13.689611
C 6.402687 3.853307 -1.996232
C 6.086009 3.662722 -0.177435
C 4.791052 2.883340 -1.054910
C 4.129445 2.485252 0.963655
C 6.402687 3.853307 3.074429
C 6.086009 3.662722 4.893226
C 4.791052 2.883340 4.015751
C 4.129445 2.485252 6.034316
C 6.402687 3.853307 8.145090
C 6.086009 3.662722 9.963887
C 4.791052 2.883340 9.086411
C 4.129445 2.485252 11.104977
C 7.540133 6.000744 -4.580866
C 7.223455 5.810159 -2.762069
C 5.928498 5.030777 -3.639544
C 5.266892 4.632689 -1.620979
C 7.540133 6.000744 0.489795
C 7.223455 5.810159 2.308592
C 5.928498 5.030777 1.431117
C 5.266892 4.632689 3.449682
C 7.540133 6.000744 5.560456
C 7.223455 5.810159 7.379253
C 5.928498 5.030777 6.501777
C 5.266892 4.632689 8.520343
C 7.695992 1.705870 1.105329
C 7.379315 1.515285 2.924126
C 6.084357 0.735903 2.046651
C 5.422751 0.337815 4.065216
C 7.695992 1.705870 6.175990
C 7.379315 1.515285 7.994787
C 6.084357 0.735903 7.117311
C 5.422751 0.337815 9.135877
C 7.695992 1.705870 11.246650
C 7.379315 1.515285 13.065448
C 6.084357 0.735903 12.187972
C 5.422751 0.337815 14.206538
C 8.833439 3.853307 -1.479305
C 8.516761 3.662722 0.339492
C 7.221804 2.883340 -0.537983
C 6.560197 2.485252 1.480582
C 8.833439 3.853307 3.591356
C 8.516761 3.662722 5.410153
C 7.221804 2.883340 4.532677
C 6.560197 2.485252 6.551243
C 8.833439 3.853307 8.662016
C 8.516761 3.662722 10.480814
C 7.221804 2.883340 9.603338
C 6.560197 2.485252 11.621904
C 9.970885 6.000744 -4.063939
C 9.654208 5.810159 -2.245142
C 8.359250 5.030777 -3.122617
C 7.697644 4.632689 -1.104052
C 9.970885 6.000744 1.006722
C 9.654208 5.810159 2.825519
C 8.359250 5.030777 1.948043
C 7.697644 4.632689 3.966609
C 9.970885 6.000744 6.077382
C 9.654208 5.810159 7.896180
C 8.359250 5.030777 7.018704
C 7.697644 4.632689 9.037270
