108
A
C 1.654127 2.879151 1.447653
C 1.737119 1.845609 2.631576
C 0.506763 0.680838 0.593595
C 0.734309 -0.483973 3.492166
C 1.654127 2.879151 5.530148
C 1.737119 1.845609 6.714072
C 0.506763 0.680838 4.676090
C 0.734309 -0.483973 7.574662
C 1.654127 2.879151 9.612643
C 1.737119 1.845609 10.796567
C 0.506763 0.680838 8.758585
C 0.734309 -0.483973 11.657157
C 1.456527 5.339963 1.447653
C 1.539519 4.306422 2.631576
C 0.309163 3.141650 0.593595
C 0.536709 1.976840 3.492166
C 1.456527 5.339963 5.530148
C 1.539519 4.306422 6.714072
C 0.309163 3.141650 4.676090
C 0.536709 1.976840 7.574662
C 1.456527 5.339963 9.612643
C 1.539519 4.306422 10.796567
C 0.309163 3.141650 8.758585
C 0.536709 1.976840 11.657157
C 1.258927 7.800776 1.447653
C 1.341919 6.767234 2.631576
C 0.111563 5.602463 0.593595
C 0.339109 4.437652 3.492166
C 1.258927 7.800776 5.530148
C 1.341919 6.767234 6.714072
C 0.111563 5.602463 4.676090
C 0.339109 4.437652 7.574662
C 1.258927 7.800776 9.612643
C 1.341919 6.767234 10.796567
C 0.111563 5.602463 8.758585
C 0.339109 4.437652 11.657157
C 4.167887 2.879151 1.447653
C 4.250879 1.845609 2.631576
C 3.020522 0.680838 0.593595
C 3.248068 -0.483973 3.492166
C 4.167887 2.879151 5.530148
C 4.250879 1.845609 6.714072
C 3.020522 0.680838 4.676090
C 3.248068 -0.483973 7.574662
C 4.167887 2.879151 9.612643
C 4.250879 1.845609 10.796567
C 3.020522 0.680838 8.758585
C 3.248068 -0.483973 11.657157
C 3.970287 5.339963 1.447653
C 4.053279 4.306422 2.631576
C 2.822922 3.141650 0.593595
C 3.050468 1.976840 3.492166
C 3.970287 5.339963 5.530148
C 4.053279 4.306422 6.714072
C 2.822922 3.141650 4.676090
C 3.050468 1.976840 7.574662
C 3.970287 5.339963 9.612643
C 4.053279 4.306422 10.796567
C 2.822922 3.141650 8.758585
C 3.050468 1.976840 11.657157
C 3.772687 7.800776 1.447653
C 3.855679 6.767234 2.631576
C 2.625322 5.602463 0.593595
C 2.852868 4.437652 3.492166
C 3.772687 7.800776 5.530148
C 3.855679 6.767234 6.714072
C 2.625322 5.602463 4.676090
C 2.852868 4.437652 7.574662
C 3.772687 7.800776 9.612643
C 3.855679 6.767234 10.796567
C 2.625322 5.602463 8.758585
C 2.852868 4.437652 11.657157
C 6.681646 2.879151 1.447653
C 6.764638 1.845609 2.631576
C 5.534281 0.680838 0.593595
C 5.761827 -0.483973 3.492166
C 6.681646 2.879151 5.530148
C 6.764638 1.845609 6.714072
C 5.534281 0.680838 4.676090
C 5.761827 -0.483973 7.574662
C 6.681646 2.879151 9.612643
C 6.764638 1.845609 10.796567
C 5.534281 0.680838 8.758585
C 5.761827 -0.483973 11.657157
C 6.484046 5.339963 1.447653
C 6.567038 4.306422 2.631576
C 5.336681 3.141650 0.593595
C 5.564227 1.976840 3.492166
C 6.484046 5.339963 5.530148
C 6.567038 4.306422 6.714072
C 5.336681 3.141650 4.676090
C 5.564227 1.976840 7.574662
C 6.484046 5.339963 9.612643
C 6.567038 4.306422 10.796567
C 5.336681 3.141650 8.758585
C 5.564227 1.976840 11.657157
C 6.286446 7.800776 1.447653
C 6.369438 6.767234 2.631576
C 5.139081 5.602463 0.593595
C 5.366627 4.437652 3.492166
C 6.286446 7.800776 5.530148
C 6.369438 6.767234 6.714072
C 5.139081 5.602463 4.676090
C 5.366627 4.437652 7.574662
C 6.286446 7.800776 9.612643
C 6.369438 6.767234 10.796567
C 5.139081 5.602463 8.758585
C 5.366627 4.437652 11.657157
