108
A
C 1.051799 1.955481 1.671834
C 1.167580 1.676127 4.289920
C -0.036865 0.838119 1.320263
C 0.931033 -0.000056 4.686373
C 1.051799 1.955481 7.656029
C 1.167580 1.676127 10.274115
C -0.036865 0.838119 7.304458
C 0.931033 -0.000056 10.670568
C 1.051799 1.955481 13.640224
C 1.167580 1.676127 16.258310
C -0.036865 0.838119 13.288653
C 0.931033 -0.000056 16.654763
C 0.125549 4.190317 1.671834
C 0.241330 3.910962 4.289920
C -0.963115 3.072955 1.320263
C 0.004783 2.234780 4.686373
C 0.125549 4.190317 7.656029
C 0.241330 3.910962 10.274115
C -0.963115 3.072955 7.304458
C 0.004783 2.234780 10.670568
C 0.125549 4.190317 13.640224
C 0.241330 3.910962 16.258310
C -0.963115 3.072955 13.288653
C 0.004783 2.234780 16.654763
C -0.800701 6.425152 1.671834
C -0.684920 6.145798 4.289920
C -1.889365 5.307791 1.320263
C -0.921467 4.469615 4.686373
C -0.800701 6.425152 7.656029
C -0.684920 6.145798 10.274115
C -1.889365 5.307791 7.304458
C -0.921467 4.469615 10.670568
C -0.800701 6.425152 13.640224
C -0.684920 6.145798 16.258310
C -1.889365 5.307791 13.288653
C -0.921467 4.469615 16.654763
C 3.534823 1.955481 1.671834
C 3.650604 1.676127 4.289920
C 2.446159 0.838119 1.320263
C 3.414056 -0.000056 4.686373
C 3.534823 1.955481 7.656029
C 3.650604 1.676127 10.274115
C 2.446159 0.838119 7.304458
C 3.414056 -0.000056 10.670568
C 3.534823 1.955481 13.640224
C 3.650604 1.676127 16.258310
C 2.446159 0.838119 13.288653
C 3.414056 -0.000056 16.654763
C 2.608573 4.190317 1.671834
C 2.724354 3.910962 4.289920
C 1.519909 3.072955 1.320263
C 2.487806 2.234780 4.686373
C 2.608573 4.190317 7.656029
C 2.724354 3.910962 10.274115
C 1.519909 3.072955 7.304458
C 2.487806 2.234780 10.670568
C 2.608573 4.190317 13.640224
C 2.724354 3.910962 16.258310
C 1.519909 3.072955 13.288653
C 2.487806 2.234780 16.654763
C 1.682323 6.425152 1.671834
C 1.798104 6.145798 4.289920
C 0.593659 5.307791 1.320263
C 1.561556 4.469615 4.686373
C 1.682323 6.425152 7.656029
C 1.798104 6.145798 10.274115
C 0.593659 5.307791 7.304458
C 1.561556 4.469615 10.670568
C 1.682323 6.425152 13.640224
C 1.798104 6.145798 16.258310
C 0.593659 5.307791 13.288653
C 1.561556 4.469615 16.654763
C 6.017846 1.955481 1.671834
C 6.133627 1.676127 4.289920
C 4.929182 0.838119 1.320263
C 5.897080 -0.000056 4.686373
C 6.017846 1.955481 7.656029
C 6.133627 1.676127 10.274115
C 4.929182 0.838119 7.304458
C 5.897080 -0.000056 10.670568
C 6.017846 1.955481 13.640224
C 6.133627 1.676127 16.258310
C 4.929182 0.838119 13.288653
C 5.897080 -0.000056 16.654763
C 5.091596 4.190317 1.671834
C 5.207377 3.910962 4.289920
C 4.002932 3.072955 1.320263
C 4.970830 2.234780 4.686373
C 5.091596 4.190317 7.656029
C 5.207377 3.910962 10.274115
C 4.002932 3.072955 7.304458
C 4.970830 2.234780 10.670568
C 5.091596 4.190317 13.640224
C 5.207377 3.910962 16.258310
C 4.002932 3.072955 13.288653
C 4.970830 2.234780 16.654763
C 4.165346 6.425152 1.671834
C 4.281127 6.145798 4.289920
C 3.076682 5.307791 1.320263
C 4.044580 4.469615 4.686373
C 4.165346 6.425152 7.656029
C 4.281127 6.145798 10.274115
C 3.076682 5.307791 7.304458
C 4.044580 4.469615 10.670568
C 4.165346 6.425152 13.640224
C 4.281127 6.145798 16.258310
C 3.076682 5.307791 13.288653
C 4.044580 4.469615 16.654763
