108
A
C 1.038915 1.926507 1.674420
C 1.148274 1.670382 4.350952
C -0.057699 0.842672 1.349910
C 0.932574 0.014791 4.722037
C 1.038915 1.926507 7.723080
C 1.148274 1.670382 10.399611
C -0.057699 0.842672 7.398569
C 0.932574 0.014791 10.770697
C 1.038915 1.926507 13.771739
C 1.148274 1.670382 16.448271
C -0.057699 0.842672 13.447228
C 0.932574 0.014791 16.819356
C 0.087965 4.153682 1.674420
C 0.197324 3.897557 4.350952
C -1.008649 3.069847 1.349910
C -0.018376 2.241966 4.722037
C 0.087965 4.153682 7.723080
C 0.197324 3.897557 10.399611
C -1.008649 3.069847 7.398569
C -0.018376 2.241966 10.770697
C 0.087965 4.153682 13.771739
C 0.197324 3.897557 16.448271
C -1.008649 3.069847 13.447228
C -0.018376 2.241966 16.819356
C -0.862985 6.380858 1.674420
C -0.753626 6.124732 4.350952
C -1.959599 5.297023 1.349910
C -0.969326 4.469141 4.722037
C -0.862985 6.380858 7.723080
C -0.753626 6.124732 10.399611
C -1.959599 5.297023 7.398569
C -0.969326 4.469141 10.770697
C -0.862985 6.380858 13.771739
C -0.753626 6.124732 16.448271
C -1.959599 5.297023 13.447228
C -0.969326 4.469141 16.819356
C 3.520896 1.926507 1.674420
C 3.630255 1.670382 4.350952
C 2.424283 0.842672 1.349910
C 3.414555 0.014791 4.722037
C 3.520896 1.926507 7.723080
C 3.630255 1.670382 10.399611
C 2.424283 0.842672 7.398569
C 3.414555 0.014791 10.770697
C 3.520896 1.926507 13.771739
C 3.630255 1.670382 16.448271
C 2.424283 0.842672 13.447228
C 3.414555 0.014791 16.819356
C 2.569946 4.153682 1.674420
C 2.679305 3.897557 4.350952
C 1.473333 3.069847 1.349910
C 2.463605 2.241966 4.722037
C 2.569946 4.153682 7.723080
C 2.679305 3.897557 10.399611
C 1.473333 3.069847 7.398569
C 2.463605 2.241966 10.770697
C 2.569946 4.153682 13.771739
C 2.679305 3.897557 16.448271
C 1.473333 3.069847 13.447228
C 2.463605 2.241966 16.819356
C 1.618996 6.380858 1.674420
C 1.728355 6.124732 4.350952
C 0.522383 5.297023 1.349910
C 1.512655 4.469141 4.722037
C 1.618996 6.380858 7.723080
C 1.728355 6.124732 10.399611
C 0.522383 5.297023 7.398569
C 1.512655 4.469141 10.770697
C 1.618996 6.380858 13.771739
C 1.728355 6.124732 16.448271
C 0.522383 5.297023 13.447228
C 1.512655 4.469141 16.819356
C 6.002878 1.926507 1.674420
C 6.112237 1.670382 4.350952
C 4.906265 0.842672 1.349910
C 5.896537 0.014791 4.722037
C 6.002878 1.926507 7.723080
C 6.112237 1.670382 10.399611
C 4.906265 0.842672 7.398569
C 5.896537 0.014791 10.770697
C 6.002878 1.926507 13.771739
C 6.112237 1.670382 16.448271
C 4.906265 0.842672 13.447228
C 5.896537 0.014791 16.819356
C 5.051928 4.153682 1.674420
C 5.161287 3.897557 4.350952
C 3.955315 3.069847 1.349910
C 4.945587 2.241966 4.722037
C 5.051928 4.153682 7.723080
C 5.161287 3.897557 10.399611
C 3.955315 3.069847 7.398569
C 4.945587 2.241966 10.770697
C 5.051928 4.153682 13.771739
C 5.161287 3.897557 16.448271
C 3.955315 3.069847 13.447228
C 4.945587 2.241966 16.819356
C 4.100978 6.380858 1.674420
C 4.210337 6.124732 4.350952
C 3.004365 5.297023 1.349910
C 3.994637 4.469141 4.722037
C 4.100978 6.380858 7.723080
C 4.210337 6.124732 10.399611
C 3.004365 5.297023 7.398569
C 3.994637 4.469141 10.770697
C 4.100978 6.380858 13.771739
C 4.210337 6.124732 16.448271
C 3.004365 5.297023 13.447228
C 3.994637 4.469141 16.819356
