108
A
C 2.816247 1.670026 0.694481
C 2.608306 1.546717 2.956794
C 1.333538 0.790705 1.259125
C 0.474647 0.281542 3.762441
C 2.816247 1.670026 6.370543
C 2.608306 1.546717 8.632856
C 1.333538 0.790705 6.935187
C 0.474647 0.281542 9.438503
C 2.816247 1.670026 12.046605
C 2.608306 1.546717 14.308918
C 1.333538 0.790705 12.611249
C 0.474647 0.281542 15.114565
C 3.988043 3.814521 -0.980071
C 3.780102 3.691213 1.282242
C 2.505334 2.935201 -0.415426
C 1.646443 2.426038 2.087890
C 3.988043 3.814521 4.695991
C 3.780102 3.691213 6.958304
C 2.505334 2.935201 5.260636
C 1.646443 2.426038 7.763952
C 3.988043 3.814521 10.372053
C 3.780102 3.691213 12.634366
C 2.505334 2.935201 10.936698
C 1.646443 2.426038 13.440014
C 5.159839 5.959016 -2.654623
C 4.951898 5.835708 -0.392309
C 3.677130 5.079696 -2.089978
C 2.818239 4.570533 0.413338
C 5.159839 5.959016 3.021439
C 4.951898 5.835708 5.283753
C 3.677130 5.079696 3.586084
C 2.818239 4.570533 6.089400
C 5.159839 5.959016 8.697501
C 4.951898 5.835708 10.959815
C 3.677130 5.079696 9.262146
C 2.818239 4.570533 11.765462
C 5.260819 1.670026 1.029391
C 5.052877 1.546717 3.291704
C 3.778109 0.790705 1.594036
C 2.919218 0.281542 4.097352
C 5.260819 1.670026 6.705453
C 5.052877 1.546717 8.967766
C 3.778109 0.790705 7.270098
C 2.919218 0.281542 9.773414
C 5.260819 1.670026 12.381515
C 5.052877 1.546717 14.643828
C 3.778109 0.790705 12.946160
C 2.919218 0.281542 15.449476
C 6.432615 3.814521 -0.645161
C 6.224674 3.691213 1.617153
C 4.949906 2.935201 -0.080516
C 4.091015 2.426038 2.422800
C 6.432615 3.814521 5.030901
C 6.224674 3.691213 7.293215
C 4.949906 2.935201 5.595546
C 4.091015 2.426038 8.098862
C 6.432615 3.814521 10.706963
C 6.224674 3.691213 12.969277
C 4.949906 2.935201 11.271608
C 4.091015 2.426038 13.774924
C 7.604411 5.959016 -2.319712
C 7.396470 5.835708 -0.057399
C 6.121702 5.079696 -1.755068
C 5.262811 4.570533 0.748248
C 7.604411 5.959016 3.356350
C 7.396470 5.835708 5.618663
C 6.121702 5.079696 3.920994
C 5.262811 4.570533 6.424310
C 7.604411 5.959016 9.032412
C 7.396470 5.835708 11.294725
C 6.121702 5.079696 9.597056
C 5.262811 4.570533 12.100372
C 7.705390 1.670026 1.364301
C 7.497449 1.546717 3.626615
C 6.222681 0.790705 1.928946
C 5.363790 0.281542 4.432262
C 7.705390 1.670026 7.040363
C 7.497449 1.546717 9.302677
C 6.222681 0.790705 7.605008
C 5.363790 0.281542 10.108324
C 7.705390 1.670026 12.716425
C 7.497449 1.546717 14.978738
C 6.222681 0.790705 13.281070
C 5.363790 0.281542 15.784386
C 8.877187 3.814521 -0.310250
C 8.669246 3.691213 1.952063
C 7.394478 2.935201 0.254394
C 6.535587 2.426038 2.757710
C 8.877187 3.814521 5.365812
C 8.669246 3.691213 7.628125
C 7.394478 2.935201 5.930456
C 6.535587 2.426038 8.433772
C 8.877187 3.814521 11.041874
C 8.669246 3.691213 13.304187
C 7.394478 2.935201 11.606518
C 6.535587 2.426038 14.109834
C 10.048983 5.959016 -1.984802
C 9.841042 5.835708 0.277511
C 8.566274 5.079696 -1.420157
C 7.707383 4.570533 1.083159
C 10.048983 5.959016 3.691260
C 9.841042 5.835708 5.953573
C 8.566274 5.079696 4.255905
C 7.707383 4.570533 6.759221
C 10.048983 5.959016 9.367322
C 9.841042 5.835708 11.629635
C 8.566274 5.079696 9.931967
C 7.707383 4.570533 12.435283
