108
A
C 2.788180 1.619998 1.463626
C 2.737528 1.590568 4.550443
C 1.492709 0.867172 1.605339
C 0.349193 0.203017 4.787140
C 2.788180 1.619998 7.987250
C 2.737528 1.590568 11.074067
C 1.492709 0.867172 8.128962
C 0.349193 0.203017 11.310764
C 2.788180 1.619998 14.510873
C 2.737528 1.590568 17.597690
C 1.492709 0.867172 14.652586
C 0.349193 0.203017 17.834387
C 4.008066 3.760375 1.063190
C 3.957414 3.730945 4.150007
C 2.712595 3.007549 1.204903
C 1.569079 2.343394 4.386704
C 4.008066 3.760375 7.586814
C 3.957414 3.730945 10.673631
C 2.712595 3.007549 7.728526
C 1.569079 2.343394 10.910328
C 4.008066 3.760375 14.110437
C 3.957414 3.730945 17.197254
C 2.712595 3.007549 14.252150
C 1.569079 2.343394 17.433951
C 5.227952 5.900752 0.662754
C 5.177300 5.871322 3.749571
C 3.932482 5.147926 0.804466
C 2.788965 4.483771 3.986268
C 5.227952 5.900752 7.186377
C 5.177300 5.871322 10.273194
C 3.932482 5.147926 7.328090
C 2.788965 4.483771 10.509891
C 5.227952 5.900752 13.710001
C 5.177300 5.871322 16.796818
C 3.932482 5.147926 13.851713
C 2.788965 4.483771 17.033515
C 5.252100 1.619998 1.543714
C 5.201447 1.590568 4.630531
C 3.956629 0.867172 1.685426
C 2.813113 0.203017 4.867228
C 5.252100 1.619998 8.067337
C 5.201447 1.590568 11.154154
C 3.956629 0.867172 8.209050
C 2.813113 0.203017 11.390851
C 5.252100 1.619998 14.590961
C 5.201447 1.590568 17.677778
C 3.956629 0.867172 14.732673
C 2.813113 0.203017 17.914475
C 6.471986 3.760375 1.143277
C 6.421333 3.730945 4.230094
C 5.176515 3.007549 1.284990
C 4.032999 2.343394 4.466791
C 6.471986 3.760375 7.666901
C 6.421333 3.730945 10.753718
C 5.176515 3.007549 7.808613
C 4.032999 2.343394 10.990415
C 6.471986 3.760375 14.190524
C 6.421333 3.730945 17.277341
C 5.176515 3.007549 14.332237
C 4.032999 2.343394 17.514038
C 7.691872 5.900752 0.742841
C 7.641219 5.871322 3.829658
C 6.396401 5.147926 0.884554
C 5.252885 4.483771 4.066355
C 7.691872 5.900752 7.266465
C 7.641219 5.871322 10.353282
C 6.396401 5.147926 7.408177
C 5.252885 4.483771 10.589979
C 7.691872 5.900752 13.790088
C 7.641219 5.871322 16.876905
C 6.396401 5.147926 13.931801
C 5.252885 4.483771 17.113602
C 7.716019 1.619998 1.623801
C 7.665367 1.590568 4.710618
C 6.420548 0.867172 1.765513
C 5.277032 0.203017 4.947315
C 7.716019 1.619998 8.147424
C 7.665367 1.590568 11.234241
C 6.420548 0.867172 8.289137
C 5.277032 0.203017 11.470938
C 7.716019 1.619998 14.671048
C 7.665367 1.590568 17.757865
C 6.420548 0.867172 14.812760
C 5.277032 0.203017 17.994562
C 8.935905 3.760375 1.223365
C 8.885253 3.730945 4.310182
C 7.640434 3.007549 1.365077
C 6.496918 2.343394 4.546879
C 8.935905 3.760375 7.746988
C 8.885253 3.730945 10.833805
C 7.640434 3.007549 7.888701
C 6.496918 2.343394 11.070502
C 8.935905 3.760375 14.270612
C 8.885253 3.730945 17.357429
C 7.640434 3.007549 14.412324
C 6.496918 2.343394 17.594126
C 10.155791 5.900752 0.822928
C 10.105139 5.871322 3.909745
C 8.860320 5.147926 0.964641
C 7.716804 4.483771 4.146442
C 10.155791 5.900752 7.346552
C 10.105139 5.871322 10.433369
C 8.860320 5.147926 7.488264
C 7.716804 4.483771 10.670066
C 10.155791 5.900752 13.870175
C 10.105139 5.871322 16.956992
C 8.860320 5.147926 14.011888
C 7.716804 4.483771 17.193689
