108
A
C 0.976880 1.769886 1.682765
C 1.042088 1.638783 4.692275
C -0.175105 0.866798 1.518842
C 0.935038 0.094621 4.912545
C 0.976880 1.769886 8.085978
C 1.042088 1.638783 11.095489
C -0.175105 0.866798 7.922056
C 0.935038 0.094621 11.315759
C 0.976880 1.769886 14.489192
C 1.042088 1.638783 17.498702
C -0.175105 0.866798 14.325269
C 0.935038 0.094621 17.718973
C -0.109920 3.954930 1.682765
C -0.044712 3.823827 4.692275
C -1.261905 3.051842 1.518842
C -0.151762 2.279665 4.912545
C -0.109920 3.954930 8.085978
C -0.044712 3.823827 11.095489
C -1.261905 3.051842 7.922056
C -0.151762 2.279665 11.315759
C -0.109920 3.954930 14.489192
C -0.044712 3.823827 17.498702
C -1.261905 3.051842 14.325269
C -0.151762 2.279665 17.718973
C -1.196720 6.139974 1.682765
C -1.131512 6.008871 4.692275
C -2.348705 5.236887 1.518842
C -1.238562 4.464709 4.912545
C -1.196720 6.139974 8.085978
C -1.131512 6.008871 11.095489
C -2.348705 5.236887 7.922056
C -1.238562 4.464709 11.315759
C -1.196720 6.139974 14.489192
C -1.131512 6.008871 17.498702
C -2.348705 5.236887 14.325269
C -1.238562 4.464709 17.718973
C 3.453132 1.769886 1.682765
C 3.518340 1.638783 4.692275
C 2.301147 0.866798 1.518842
C 3.411290 0.094621 4.912545
C 3.453132 1.769886 8.085978
C 3.518340 1.638783 11.095489
C 2.301147 0.866798 7.922056
C 3.411290 0.094621 11.315759
C 3.453132 1.769886 14.489192
C 3.518340 1.638783 17.498702
C 2.301147 0.866798 14.325269
C 3.411290 0.094621 17.718973
C 2.366332 3.954930 1.682765
C 2.431540 3.823827 4.692275
C 1.214347 3.051842 1.518842
C 2.324490 2.279665 4.912545
C 2.366332 3.954930 8.085978
C 2.431540 3.823827 11.095489
C 1.214347 3.051842 7.922056
C 2.324490 2.279665 11.315759
C 2.366332 3.954930 14.489192
C 2.431540 3.823827 17.498702
C 1.214347 3.051842 14.325269
C 2.324490 2.279665 17.718973
C 1.279532 6.139974 1.682765
C 1.344740 6.008871 4.692275
C 0.127547 5.236887 1.518842
C 1.237690 4.464709 4.912545
C 1.279532 6.139974 8.085978
C 1.344740 6.008871 11.095489
C 0.127547 5.236887 7.922056
C 1.237690 4.464709 11.315759
C 1.279532 6.139974 14.489192
C 1.344740 6.008871 17.498702
C 0.127547 5.236887 14.325269
C 1.237690 4.464709 17.718973
C 5.929383 1.769886 1.682765
C 5.994591 1.638783 4.692275
C 4.777398 0.866798 1.518842
C 5.887541 0.094621 4.912545
C 5.929383 1.769886 8.085978
C 5.994591 1.638783 11.095489
C 4.777398 0.866798 7.922056
C 5.887541 0.094621 11.315759
C 5.929383 1.769886 14.489192
C 5.994591 1.638783 17.498702
C 4.777398 0.866798 14.325269
C 5.887541 0.094621 17.718973
C 4.842583 3.954930 1.682765
C 4.907791 3.823827 4.692275
C 3.690598 3.051842 1.518842
C 4.800741 2.279665 4.912545
C 4.842583 3.954930 8.085978
C 4.907791 3.823827 11.095489
C 3.690598 3.051842 7.922056
C 4.800741 2.279665 11.315759
C 4.842583 3.954930 14.489192
C 4.907791 3.823827 17.498702
C 3.690598 3.051842 14.325269
C 4.800741 2.279665 17.718973
C 3.755783 6.139974 1.682765
C 3.820991 6.008871 4.692275
C 2.603798 5.236887 1.518842
C 3.713941 4.464709 4.912545
C 3.755783 6.139974 8.085978
C 3.820991 6.008871 11.095489
C 2.603798 5.236887 7.922056
C 3.713941 4.464709 11.315759
C 3.755783 6.139974 14.489192
C 3.820991 6.008871 17.498702
C 2.603798 5.236887 14.325269
C 3.713941 4.464709 17.718973
