108
A
C 2.805374 1.649993 1.016568
C 2.659640 1.564279 3.580181
C 1.396616 0.821328 1.397421
C 0.425055 0.250096 4.172155
C 2.805374 1.649993 7.031654
C 2.659640 1.564279 9.595268
C 1.396616 0.821328 7.412508
C 0.425055 0.250096 10.187241
C 2.805374 1.649993 13.046741
C 2.659640 1.564279 15.610354
C 1.396616 0.821328 13.427594
C 0.425055 0.250096 16.202328
C 3.996406 3.792841 -0.148338
C 3.850673 3.707127 2.415276
C 2.587649 2.964176 0.232516
C 1.616087 2.392944 3.007249
C 3.996406 3.792841 5.866749
C 3.850673 3.707127 8.430362
C 2.587649 2.964176 6.247602
C 1.616087 2.392944 9.022336
C 3.996406 3.792841 11.881835
C 3.850673 3.707127 14.445449
C 2.587649 2.964176 12.262689
C 1.616087 2.392944 15.037422
C 5.187439 5.935689 -1.313243
C 5.041705 5.849975 1.250370
C 3.778681 5.107024 -0.932390
C 2.807120 4.535792 1.842344
C 5.187439 5.935689 4.701843
C 5.041705 5.849975 7.265457
C 3.778681 5.107024 5.082697
C 2.807120 4.535792 7.857430
C 5.187439 5.935689 10.716930
C 5.041705 5.849975 13.280543
C 3.778681 5.107024 11.097783
C 2.807120 4.535792 13.872517
C 5.257685 1.649993 1.249549
C 5.111951 1.564279 3.813162
C 3.848927 0.821328 1.630402
C 2.877366 0.250096 4.405136
C 5.257685 1.649993 7.264635
C 5.111951 1.564279 9.828249
C 3.848927 0.821328 7.645489
C 2.877366 0.250096 10.420222
C 5.257685 1.649993 13.279722
C 5.111951 1.564279 15.843335
C 3.848927 0.821328 13.660575
C 2.877366 0.250096 16.435309
C 6.448717 3.792841 0.084643
C 6.302984 3.707127 2.648257
C 5.039960 2.964176 0.465497
C 4.068398 2.392944 3.240230
C 6.448717 3.792841 6.099730
C 6.302984 3.707127 8.663343
C 5.039960 2.964176 6.480583
C 4.068398 2.392944 9.255317
C 6.448717 3.792841 12.114816
C 6.302984 3.707127 14.678430
C 5.039960 2.964176 12.495670
C 4.068398 2.392944 15.270403
C 7.639749 5.935689 -1.080262
C 7.494016 5.849975 1.483351
C 6.230992 5.107024 -0.699409
C 5.259430 4.535792 2.075325
C 7.639749 5.935689 4.934824
C 7.494016 5.849975 7.498438
C 6.230992 5.107024 5.315678
C 5.259430 4.535792 8.090411
C 7.639749 5.935689 10.949911
C 7.494016 5.849975 13.513524
C 6.230992 5.107024 11.330764
C 5.259430 4.535792 14.105498
C 7.709996 1.649993 1.482530
C 7.564262 1.564279 4.046143
C 6.301238 0.821328 1.863383
C 5.329677 0.250096 4.638117
C 7.709996 1.649993 7.497616
C 7.564262 1.564279 10.061230
C 6.301238 0.821328 7.878470
C 5.329677 0.250096 10.653203
C 7.709996 1.649993 13.512703
C 7.564262 1.564279 16.076316
C 6.301238 0.821328 13.893556
C 5.329677 0.250096 16.668290
C 8.901028 3.792841 0.317624
C 8.755294 3.707127 2.881238
C 7.492270 2.964176 0.698478
C 6.520709 2.392944 3.473211
C 8.901028 3.792841 6.332711
C 8.755294 3.707127 8.896324
C 7.492270 2.964176 6.713564
C 6.520709 2.392944 9.488298
C 8.901028 3.792841 12.347798
C 8.755294 3.707127 14.911411
C 7.492270 2.964176 12.728651
C 6.520709 2.392944 15.503384
C 10.092060 5.935689 -0.847281
C 9.946327 5.849975 1.716332
C 8.683303 5.107024 -0.466428
C 7.711741 4.535792 2.308306
C 10.092060 5.935689 5.167805
C 9.946327 5.849975 7.731419
C 8.683303 5.107024 5.548659
C 7.711741 4.535792 8.323392
C 10.092060 5.935689 11.182892
C 9.946327 5.849975 13.746505
C 8.683303 5.107024 11.563746
C 7.711741 4.535792 14.338479
