108
A
C 1.640337 2.862384 1.453836
C 1.727466 1.842737 2.657394
C 0.498692 0.683874 0.603528
C 0.740081 -0.475031 3.514697
C 1.640337 2.862384 5.568563
C 1.727466 1.842737 6.772121
C 0.498692 0.683874 4.718255
C 0.740081 -0.475031 7.629425
C 1.640337 2.862384 9.683291
C 1.727466 1.842737 10.886849
C 0.498692 0.683874 8.832982
C 0.740081 -0.475031 11.744152
C 1.430387 5.319367 1.453836
C 1.517516 4.299719 2.657394
C 0.288742 3.140856 0.603528
C 0.530131 1.981952 3.514697
C 1.430387 5.319367 5.568563
C 1.517516 4.299719 6.772121
C 0.288742 3.140856 4.718255
C 0.530131 1.981952 7.629425
C 1.430387 5.319367 9.683291
C 1.517516 4.299719 10.886849
C 0.288742 3.140856 8.832982
C 0.530131 1.981952 11.744152
C 1.220437 7.776349 1.453836
C 1.307566 6.756701 2.657394
C 0.078792 5.597839 0.603528
C 0.320181 4.438934 3.514697
C 1.220437 7.776349 5.568563
C 1.307566 6.756701 6.772121
C 0.078792 5.597839 4.718255
C 0.320181 4.438934 7.629425
C 1.220437 7.776349 9.683291
C 1.307566 6.756701 10.886849
C 0.078792 5.597839 8.832982
C 0.320181 4.438934 11.744152
C 4.153575 2.862384 1.453836
C 4.240705 1.842737 2.657394
C 3.011931 0.683874 0.603528
C 3.253319 -0.475031 3.514697
C 4.153575 2.862384 5.568563
C 4.240705 1.842737 6.772121
C 3.011931 0.683874 4.718255
C 3.253319 -0.475031 7.629425
C 4.153575 2.862384 9.683291
C 4.240705 1.842737 10.886849
C 3.011931 0.683874 8.832982
C 3.253319 -0.475031 11.744152
C 3.943625 5.319367 1.453836
C 4.030755 4.299719 2.657394
C 2.801981 3.140856 0.603528
C 3.043369 1.981952 3.514697
C 3.943625 5.319367 5.568563
C 4.030755 4.299719 6.772121
C 2.801981 3.140856 4.718255
C 3.043369 1.981952 7.629425
C 3.943625 5.319367 9.683291
C 4.030755 4.299719 10.886849
C 2.801981 3.140856 8.832982
C 3.043369 1.981952 11.744152
C 3.733675 7.776349 1.453836
C 3.820805 6.756701 2.657394
C 2.592031 5.597839 0.603528
C 2.833419 4.438934 3.514697
C 3.733675 7.776349 5.568563
C 3.820805 6.756701 6.772121
C 2.592031 5.597839 4.718255
C 2.833419 4.438934 7.629425
C 3.733675 7.776349 9.683291
C 3.820805 6.756701 10.886849
C 2.592031 5.597839 8.832982
C 2.833419 4.438934 11.744152
C 6.666814 2.862384 1.453836
C 6.753943 1.842737 2.657394
C 5.525169 0.683874 0.603528
C 5.766558 -0.475031 3.514697
C 6.666814 2.862384 5.568563
C 6.753943 1.842737 6.772121
C 5.525169 0.683874 4.718255
C 5.766558 -0.475031 7.629425
C 6.666814 2.862384 9.683291
C 6.753943 1.842737 10.886849
C 5.525169 0.683874 8.832982
C 5.766558 -0.475031 11.744152
C 6.456864 5.319367 1.453836
C 6.543993 4.299719 2.657394
C 5.315219 3.140856 0.603528
C 5.556608 1.981952 3.514697
C 6.456864 5.319367 5.568563
C 6.543993 4.299719 6.772121
C 5.315219 3.140856 4.718255
C 5.556608 1.981952 7.629425
C 6.456864 5.319367 9.683291
C 6.543993 4.299719 10.886849
C 5.315219 3.140856 8.832982
C 5.556608 1.981952 11.744152
C 6.246914 7.776349 1.453836
C 6.334043 6.756701 2.657394
C 5.105269 5.597839 0.603528
C 5.346658 4.438934 3.514697
C 6.246914 7.776349 5.568563
C 6.334043 6.756701 6.772121
C 5.105269 5.597839 4.718255
C 5.346658 4.438934 7.629425
C 6.246914 7.776349 9.683291
C 6.334043 6.756701 10.886849
C 5.105269 5.597839 8.832982
C 5.346658 4.438934 11.744152
