108
A
C 2.795679 1.632845 1.277330
C 2.704018 1.579309 4.129447
C 1.451310 0.847538 1.516162
C 0.381922 0.223180 4.523514
C 2.795679 1.632845 7.583009
C 2.704018 1.579309 10.435126
C 1.451310 0.847538 7.821841
C 0.381922 0.223180 10.829193
C 2.795679 1.632845 13.888688
C 2.704018 1.579309 16.740805
C 1.451310 0.847538 14.127520
C 0.381922 0.223180 17.134872
C 4.003199 3.774281 0.549264
C 3.911538 3.720745 3.401381
C 2.658830 2.988974 0.788096
C 1.589442 2.364617 3.795448
C 4.003199 3.774281 6.854943
C 3.911538 3.720745 9.707060
C 2.658830 2.988974 7.093775
C 1.589442 2.364617 10.101127
C 4.003199 3.774281 13.160622
C 3.911538 3.720745 16.012739
C 2.658830 2.988974 13.399454
C 1.589442 2.364617 16.406806
C 5.210719 5.915717 -0.178802
C 5.119058 5.862181 2.673315
C 3.866350 5.130410 0.060030
C 2.796962 4.506053 3.067382
C 5.210719 5.915717 6.126877
C 5.119058 5.862181 8.978994
C 3.866350 5.130410 6.365709
C 2.796962 4.506053 9.373061
C 5.210719 5.915717 12.432557
C 5.119058 5.862181 15.284673
C 3.866350 5.130410 12.671388
C 2.796962 4.506053 15.678740
C 5.254623 1.632845 1.422943
C 5.162962 1.579309 4.275060
C 3.910254 0.847538 1.661775
C 2.840867 0.223180 4.669127
C 5.254623 1.632845 7.728622
C 5.162962 1.579309 10.580739
C 3.910254 0.847538 7.967454
C 2.840867 0.223180 10.974806
C 5.254623 1.632845 14.034302
C 5.162962 1.579309 16.886418
C 3.910254 0.847538 14.273133
C 2.840867 0.223180 17.280485
C 6.462144 3.774281 0.694877
C 6.370482 3.720745 3.546994
C 5.117774 2.988974 0.933709
C 4.048387 2.364617 3.941061
C 6.462144 3.774281 7.000557
C 6.370482 3.720745 9.852673
C 5.117774 2.988974 7.239388
C 4.048387 2.364617 10.246740
C 6.462144 3.774281 13.306236
C 6.370482 3.720745 16.158353
C 5.117774 2.988974 13.545067
C 4.048387 2.364617 16.552419
C 7.669664 5.915717 -0.033188
C 7.578002 5.862181 2.818928
C 6.325295 5.130410 0.205643
C 5.255907 4.506053 3.212995
C 7.669664 5.915717 6.272491
C 7.578002 5.862181 9.124608
C 6.325295 5.130410 6.511322
C 5.255907 4.506053 9.518674
C 7.669664 5.915717 12.578170
C 7.578002 5.862181 15.430287
C 6.325295 5.130410 12.817001
C 5.255907 4.506053 15.824353
C 7.713568 1.632845 1.568557
C 7.621906 1.579309 4.420673
C 6.369199 0.847538 1.807388
C 5.299811 0.223180 4.814740
C 7.713568 1.632845 7.874236
C 7.621906 1.579309 10.726353
C 6.369199 0.847538 8.113067
C 5.299811 0.223180 11.120419
C 7.713568 1.632845 14.179915
C 7.621906 1.579309 17.032032
C 6.369199 0.847538 14.418746
C 5.299811 0.223180 17.426098
C 8.921088 3.774281 0.840491
C 8.829426 3.720745 3.692608
C 7.576719 2.988974 1.079322
C 6.507331 2.364617 4.086674
C 8.921088 3.774281 7.146170
C 8.829426 3.720745 9.998287
C 7.576719 2.988974 7.385001
C 6.507331 2.364617 10.392353
C 8.921088 3.774281 13.451849
C 8.829426 3.720745 16.303966
C 7.576719 2.988974 13.690680
C 6.507331 2.364617 16.698032
C 10.128608 5.915717 0.112425
C 10.036946 5.862181 2.964542
C 8.784239 5.130410 0.351256
C 7.714851 4.506053 3.358608
C 10.128608 5.915717 6.418104
C 10.036946 5.862181 9.270221
C 8.784239 5.130410 6.656935
C 7.714851 4.506053 9.664287
C 10.128608 5.915717 12.723783
C 10.036946 5.862181 15.575900
C 8.784239 5.130410 12.962614
C 7.714851 4.506053 15.969967
