108
A
C 1.768897 3.014659 1.395228
C 1.814345 1.868590 2.427880
C 0.569905 0.656089 0.517091
C 0.685106 -0.556431 3.309076
C 1.768897 3.014659 5.219865
C 1.814345 1.868590 6.252518
C 0.569905 0.656089 4.341729
C 0.685106 -0.556431 7.133714
C 1.768897 3.014659 9.044503
C 1.814345 1.868590 10.077155
C 0.569905 0.656089 8.166366
C 0.685106 -0.556431 10.958352
C 1.670097 5.506112 1.395228
C 1.715545 4.360043 2.427880
C 0.471105 3.147543 0.517091
C 0.586306 1.935022 3.309076
C 1.670097 5.506112 5.219865
C 1.715545 4.360043 6.252518
C 0.471105 3.147543 4.341729
C 0.586306 1.935022 7.133714
C 1.670097 5.506112 9.044503
C 1.715545 4.360043 10.077155
C 0.471105 3.147543 8.166366
C 0.586306 1.935022 10.958352
C 1.571297 7.997565 1.395228
C 1.616745 6.851497 2.427880
C 0.372305 5.638996 0.517091
C 0.487506 4.426476 3.309076
C 1.571297 7.997565 5.219865
C 1.616745 6.851497 6.252518
C 0.372305 5.638996 4.341729
C 0.487506 4.426476 7.133714
C 1.571297 7.997565 9.044503
C 1.616745 6.851497 10.077155
C 0.372305 5.638996 8.166366
C 0.487506 4.426476 10.958352
C 4.286824 3.014659 1.395228
C 4.332272 1.868590 2.427880
C 3.087832 0.656089 0.517091
C 3.203033 -0.556431 3.309076
C 4.286824 3.014659 5.219865
C 4.332272 1.868590 6.252518
C 3.087832 0.656089 4.341729
C 3.203033 -0.556431 7.133714
C 4.286824 3.014659 9.044503
C 4.332272 1.868590 10.077155
C 3.087832 0.656089 8.166366
C 3.203033 -0.556431 10.958352
C 4.188024 5.506112 1.395228
C 4.233472 4.360043 2.427880
C 2.989032 3.147543 0.517091
C 3.104233 1.935022 3.309076
C 4.188024 5.506112 5.219865
C 4.233472 4.360043 6.252518
C 2.989032 3.147543 4.341729
C 3.104233 1.935022 7.133714
C 4.188024 5.506112 9.044503
C 4.233472 4.360043 10.077155
C 2.989032 3.147543 8.166366
C 3.104233 1.935022 10.958352
C 4.089224 7.997565 1.395228
C 4.134672 6.851497 2.427880
C 2.890232 5.638996 0.517091
C 3.005433 4.426476 3.309076
C 4.089224 7.997565 5.219865
C 4.134672 6.851497 6.252518
C 2.890232 5.638996 4.341729
C 3.005433 4.426476 7.133714
C 4.089224 7.997565 9.044503
C 4.134672 6.851497 10.077155
C 2.890232 5.638996 8.166366
C 3.005433 4.426476 10.958352
C 6.804751 3.014659 1.395228
C 6.850199 1.868590 2.427880
C 5.605759 0.656089 0.517091
C 5.720960 -0.556431 3.309076
C 6.804751 3.014659 5.219865
C 6.850199 1.868590 6.252518
C 5.605759 0.656089 4.341729
C 5.720960 -0.556431 7.133714
C 6.804751 3.014659 9.044503
C 6.850199 1.868590 10.077155
C 5.605759 0.656089 8.166366
C 5.720960 -0.556431 10.958352
C 6.705951 5.506112 1.395228
C 6.751399 4.360043 2.427880
C 5.506959 3.147543 0.517091
C 5.622160 1.935022 3.309076
C 6.705951 5.506112 5.219865
C 6.751399 4.360043 6.252518
C 5.506959 3.147543 4.341729
C 5.622160 1.935022 7.133714
C 6.705951 5.506112 9.044503
C 6.751399 4.360043 10.077155
C 5.506959 3.147543 8.166366
C 5.622160 1.935022 10.958352
C 6.607151 7.997565 1.395228
C 6.652599 6.851497 2.427880
C 5.408159 5.638996 0.517091
C 5.523360 4.426476 3.309076
C 6.607151 7.997565 5.219865
C 6.652599 6.851497 6.252518
C 5.408159 5.638996 4.341729
C 5.523360 4.426476 7.133714
C 6.607151 7.997565 9.044503
C 6.652599 6.851497 10.077155
C 5.408159 5.638996 8.166366
C 5.523360 4.426476 10.958352
