108
A
C 2.812418 1.662868 0.811720
C 2.626585 1.552993 3.177278
C 1.355975 0.801648 1.308488
C 0.457026 0.270306 3.908742
C 2.812418 1.662868 6.608862
C 2.626585 1.552993 8.974420
C 1.355975 0.801648 7.105630
C 0.457026 0.270306 9.705884
C 2.812418 1.662868 12.406005
C 2.626585 1.552993 14.771563
C 1.355975 0.801648 12.902772
C 0.457026 0.270306 15.503026
C 3.991084 3.806775 -0.680815
C 3.805252 3.696900 1.684743
C 2.534642 2.945555 -0.184047
C 1.635692 2.414213 2.416207
C 3.991084 3.806775 5.116327
C 3.805252 3.696900 7.481885
C 2.534642 2.945555 5.613095
C 1.635692 2.414213 8.213349
C 3.991084 3.806775 10.913469
C 3.805252 3.696900 13.279027
C 2.534642 2.945555 11.410237
C 1.635692 2.414213 14.010491
C 5.169750 5.950682 -2.173350
C 4.983918 5.840807 0.192208
C 3.713308 5.089462 -1.676583
C 2.814358 4.558120 0.923672
C 5.169750 5.950682 3.623792
C 4.983918 5.840807 5.989350
C 3.713308 5.089462 4.120560
C 2.814358 4.558120 6.720814
C 5.169750 5.950682 9.420934
C 4.983918 5.840807 11.786492
C 3.713308 5.089462 9.917702
C 2.814358 4.558120 12.517956
C 5.259754 1.662868 1.110227
C 5.073921 1.552993 3.475785
C 3.803311 0.801648 1.606995
C 2.904361 0.270306 4.207249
C 5.259754 1.662868 6.907369
C 5.073921 1.552993 9.272927
C 3.803311 0.801648 7.404137
C 2.904361 0.270306 10.004391
C 5.259754 1.662868 12.704512
C 5.073921 1.552993 15.070070
C 3.803311 0.801648 13.201279
C 2.904361 0.270306 15.801533
C 6.438420 3.806775 -0.382308
C 6.252587 3.696900 1.983250
C 4.981978 2.945555 0.114460
C 4.083028 2.414213 2.714714
C 6.438420 3.806775 5.414834
C 6.252587 3.696900 7.780392
C 4.981978 2.945555 5.911602
C 4.083028 2.414213 8.511856
C 6.438420 3.806775 11.211976
C 6.252587 3.696900 13.577534
C 4.981978 2.945555 11.708744
C 4.083028 2.414213 14.308998
C 7.617086 5.950682 -1.874843
C 7.431254 5.840807 0.490715
C 6.160644 5.089462 -1.378076
C 5.261694 4.558120 1.222179
C 7.617086 5.950682 3.922299
C 7.431254 5.840807 6.287857
C 6.160644 5.089462 4.419067
C 5.261694 4.558120 7.019321
C 7.617086 5.950682 9.719441
C 7.431254 5.840807 12.084999
C 6.160644 5.089462 10.216209
C 5.261694 4.558120 12.816463
C 7.707089 1.662868 1.408734
C 7.521257 1.552993 3.774292
C 6.250647 0.801648 1.905502
C 5.351697 0.270306 4.505756
C 7.707089 1.662868 7.205876
C 7.521257 1.552993 9.571434
C 6.250647 0.801648 7.702644
C 5.351697 0.270306 10.302898
C 7.707089 1.662868 13.003019
C 7.521257 1.552993 15.368577
C 6.250647 0.801648 13.499786
C 5.351697 0.270306 16.100040
C 8.885756 3.806775 -0.083801
C 8.699923 3.696900 2.281757
C 7.429313 2.945555 0.412967
C 6.530363 2.414213 3.013221
C 8.885756 3.806775 5.713341
C 8.699923 3.696900 8.078899
C 7.429313 2.945555 6.210109
C 6.530363 2.414213 8.810363
C 8.885756 3.806775 11.510483
C 8.699923 3.696900 13.876041
C 7.429313 2.945555 12.007251
C 6.530363 2.414213 14.607505
C 10.064422 5.950682 -1.576336
C 9.878589 5.840807 0.789222
C 8.607980 5.089462 -1.079569
C 7.709030 4.558120 1.520686
C 10.064422 5.950682 4.220806
C 9.878589 5.840807 6.586364
C 8.607980 5.089462 4.717574
C 7.709030 4.558120 7.317828
C 10.064422 5.950682 10.017948
C 9.878589 5.840807 12.383506
C 8.607980 5.089462 10.514716
C 7.709030 4.558120 13.114970
