108
A
C 1.710524 2.946598 1.422098
C 1.775732 1.857100 2.529096
C 0.538649 0.668566 0.554685
C 0.710380 -0.519998 3.401253
C 1.710524 2.946598 5.375664
C 1.775732 1.857100 6.482663
C 0.538649 0.668566 4.508252
C 0.710380 -0.519998 7.354820
C 1.710524 2.946598 9.329231
C 1.775732 1.857100 10.436229
C 0.538649 0.668566 8.461818
C 0.710380 -0.519998 11.308386
C 1.562324 5.422731 1.422098
C 1.627532 4.333233 2.529096
C 0.390449 3.144699 0.554685
C 0.562180 1.956135 3.401253
C 1.562324 5.422731 5.375664
C 1.627532 4.333233 6.482663
C 0.390449 3.144699 4.508252
C 0.562180 1.956135 7.354820
C 1.562324 5.422731 9.329231
C 1.627532 4.333233 10.436229
C 0.390449 3.144699 8.461818
C 0.562180 1.956135 11.308386
C 1.414124 7.898864 1.422098
C 1.479332 6.809366 2.529096
C 0.242249 5.620832 0.554685
C 0.413980 4.432268 3.401253
C 1.414124 7.898864 5.375664
C 1.479332 6.809366 6.482663
C 0.242249 5.620832 4.508252
C 0.413980 4.432268 7.354820
C 1.414124 7.898864 9.329231
C 1.479332 6.809366 10.436229
C 0.242249 5.620832 8.461818
C 0.413980 4.432268 11.308386
C 4.226367 2.946598 1.422098
C 4.291575 1.857100 2.529096
C 3.054492 0.668566 0.554685
C 3.226223 -0.519998 3.401253
C 4.226367 2.946598 5.375664
C 4.291575 1.857100 6.482663
C 3.054492 0.668566 4.508252
C 3.226223 -0.519998 7.354820
C 4.226367 2.946598 9.329231
C 4.291575 1.857100 10.436229
C 3.054492 0.668566 8.461818
C 3.226223 -0.519998 11.308386
C 4.078167 5.422731 1.422098
C 4.143375 4.333233 2.529096
C 2.906292 3.144699 0.554685
C 3.078023 1.956135 3.401253
C 4.078167 5.422731 5.375664
C 4.143375 4.333233 6.482663
C 2.906292 3.144699 4.508252
C 3.078023 1.956135 7.354820
C 4.078167 5.422731 9.329231
C 4.143375 4.333233 10.436229
C 2.906292 3.144699 8.461818
C 3.078023 1.956135 11.308386
C 3.929967 7.898864 1.422098
C 3.995175 6.809366 2.529096
C 2.758092 5.620832 0.554685
C 2.929823 4.432268 3.401253
C 3.929967 7.898864 5.375664
C 3.995175 6.809366 6.482663
C 2.758092 5.620832 4.508252
C 2.929823 4.432268 7.354820
C 3.929967 7.898864 9.329231
C 3.995175 6.809366 10.436229
C 2.758092 5.620832 8.461818
C 2.929823 4.432268 11.308386
C 6.742210 2.946598 1.422098
C 6.807418 1.857100 2.529096
C 5.570335 0.668566 0.554685
C 5.742066 -0.519998 3.401253
C 6.742210 2.946598 5.375664
C 6.807418 1.857100 6.482663
C 5.570335 0.668566 4.508252
C 5.742066 -0.519998 7.354820
C 6.742210 2.946598 9.329231
C 6.807418 1.857100 10.436229
C 5.570335 0.668566 8.461818
C 5.742066 -0.519998 11.308386
C 6.594010 5.422731 1.422098
C 6.659218 4.333233 2.529096
C 5.422135 3.144699 0.554685
C 5.593866 1.956135 3.401253
C 6.594010 5.422731 5.375664
C 6.659218 4.333233 6.482663
C 5.422135 3.144699 4.508252
C 5.593866 1.956135 7.354820
C 6.594010 5.422731 9.329231
C 6.659218 4.333233 10.436229
C 5.422135 3.144699 8.461818
C 5.593866 1.956135 11.308386
C 6.445810 7.898864 1.422098
C 6.511018 6.809366 2.529096
C 5.273935 5.620832 0.554685
C 5.445666 4.432268 3.401253
C 6.445810 7.898864 5.375664
C 6.511018 6.809366 6.482663
C 5.273935 5.620832 4.508252
C 5.445666 4.432268 7.354820
C 6.445810 7.898864 9.329231
C 6.511018 6.809366 10.436229
C 5.273935 5.620832 8.461818
C 5.445666 4.432268 11.308386
