108
A
C 1.573237 2.779128 1.483519
C 1.679200 1.828374 2.787665
C 0.457749 0.698863 0.654425
C 0.767680 -0.430701 3.626167
C 1.573237 2.779128 5.759408
C 1.679200 1.828374 7.063554
C 0.457749 0.698863 4.930313
C 0.767680 -0.430701 7.902056
C 1.573237 2.779128 10.035296
C 1.679200 1.828374 11.339442
C 0.457749 0.698863 9.206202
C 0.767680 -0.430701 12.177944
C 1.301537 5.216960 1.483519
C 1.407500 4.266206 2.787665
C 0.186049 3.136695 0.654425
C 0.495980 2.007130 3.626167
C 1.301537 5.216960 5.759408
C 1.407500 4.266206 7.063554
C 0.186049 3.136695 4.930313
C 0.495980 2.007130 7.902056
C 1.301537 5.216960 10.035296
C 1.407500 4.266206 11.339442
C 0.186049 3.136695 9.206202
C 0.495980 2.007130 12.177944
C 1.029837 7.654792 1.483519
C 1.135800 6.704037 2.787665
C -0.085651 5.574527 0.654425
C 0.224280 4.444962 3.626167
C 1.029837 7.654792 5.759408
C 1.135800 6.704037 7.063554
C -0.085651 5.574527 4.930313
C 0.224280 4.444962 7.902056
C 1.029837 7.654792 10.035296
C 1.135800 6.704037 11.339442
C -0.085651 5.574527 9.206202
C 0.224280 4.444962 12.177944
C 4.083871 2.779128 1.483519
C 4.189834 1.828374 2.787665
C 2.968383 0.698863 0.654425
C 3.278314 -0.430701 3.626167
C 4.083871 2.779128 5.759408
C 4.189834 1.828374 7.063554
C 2.968383 0.698863 4.930313
C 3.278314 -0.430701 7.902056
C 4.083871 2.779128 10.035296
C 4.189834 1.828374 11.339442
C 2.968383 0.698863 9.206202
C 3.278314 -0.430701 12.177944
C 3.812171 5.216960 1.483519
C 3.918134 4.266206 2.787665
C 2.696683 3.136695 0.654425
C 3.006614 2.007130 3.626167
C 3.812171 5.216960 5.759408
C 3.918134 4.266206 7.063554
C 2.696683 3.136695 4.930313
C 3.006614 2.007130 7.902056
C 3.812171 5.216960 10.035296
C 3.918134 4.266206 11.339442
C 2.696683 3.136695 9.206202
C 3.006614 2.007130 12.177944
C 3.540471 7.654792 1.483519
C 3.646434 6.704037 2.787665
C 2.424983 5.574527 0.654425
C 2.734914 4.444962 3.626167
C 3.540471 7.654792 5.759408
C 3.646434 6.704037 7.063554
C 2.424983 5.574527 4.930313
C 2.734914 4.444962 7.902056
C 3.540471 7.654792 10.035296
C 3.646434 6.704037 11.339442
C 2.424983 5.574527 9.206202
C 2.734914 4.444962 12.177944
C 6.594504 2.779128 1.483519
C 6.700467 1.828374 2.787665
C 5.479016 0.698863 0.654425
C 5.788948 -0.430701 3.626167
C 6.594504 2.779128 5.759408
C 6.700467 1.828374 7.063554
C 5.479016 0.698863 4.930313
C 5.788948 -0.430701 7.902056
C 6.594504 2.779128 10.035296
C 6.700467 1.828374 11.339442
C 5.479016 0.698863 9.206202
C 5.788948 -0.430701 12.177944
C 6.322804 5.216960 1.483519
C 6.428767 4.266206 2.787665
C 5.207316 3.136695 0.654425
C 5.517248 2.007130 3.626167
C 6.322804 5.216960 5.759408
C 6.428767 4.266206 7.063554
C 5.207316 3.136695 4.930313
C 5.517248 2.007130 7.902056
C 6.322804 5.216960 10.035296
C 6.428767 4.266206 11.339442
C 5.207316 3.136695 9.206202
C 5.517248 2.007130 12.177944
C 6.051104 7.654792 1.483519
C 6.157067 6.704037 2.787665
C 4.935616 5.574527 0.654425
C 5.245548 4.444962 3.626167
C 6.051104 7.654792 5.759408
C 6.157067 6.704037 7.063554
C 4.935616 5.574527 4.930313
C 5.245548 4.444962 7.902056
C 6.051104 7.654792 10.035296
C 6.157067 6.704037 11.339442
C 4.935616 5.574527 9.206202
C 5.245548 4.444962 12.177944
