108
A
C 2.797319 1.635702 1.234851
C 2.696597 1.576806 4.036945
C 1.442154 0.843172 1.496359
C 0.389151 0.227664 4.464943
C 2.797319 1.635702 7.492098
C 2.696597 1.576806 10.294192
C 1.442154 0.843172 7.753606
C 0.389151 0.227664 10.722190
C 2.797319 1.635702 13.749345
C 2.696597 1.576806 16.551439
C 1.442154 0.843172 14.010853
C 0.389151 0.227664 16.979437
C 4.002091 3.777373 0.433979
C 3.901369 3.718477 3.236073
C 2.646926 2.984843 0.695486
C 1.593923 2.369335 3.664070
C 4.002091 3.777373 6.691226
C 3.901369 3.718477 9.493320
C 2.646926 2.984843 6.952733
C 1.593923 2.369335 9.921317
C 4.002091 3.777373 12.948473
C 3.901369 3.718477 15.750567
C 2.646926 2.984843 13.209980
C 1.593923 2.369335 16.178564
C 5.206863 5.919044 -0.366894
C 5.106142 5.860148 2.435200
C 3.851699 5.126515 -0.105386
C 2.798695 4.511007 2.863198
C 5.206863 5.919044 5.890353
C 5.106142 5.860148 8.692447
C 3.851699 5.126515 6.151861
C 2.798695 4.511007 9.120445
C 5.206863 5.919044 12.147600
C 5.106142 5.860148 14.949694
C 3.851699 5.126515 12.409108
C 2.798695 4.511007 15.377692
C 5.255158 1.635702 1.395026
C 5.154436 1.576806 4.197120
C 3.899993 0.843172 1.656533
C 2.846990 0.227664 4.625117
C 5.255158 1.635702 7.652273
C 5.154436 1.576806 10.454367
C 3.899993 0.843172 7.913780
C 2.846990 0.227664 10.882364
C 5.255158 1.635702 13.909520
C 5.154436 1.576806 16.711614
C 3.899993 0.843172 14.171027
C 2.846990 0.227664 17.139611
C 6.459930 3.777373 0.594153
C 6.359208 3.718477 3.396247
C 5.104765 2.984843 0.855661
C 4.051762 2.369335 3.824245
C 6.459930 3.777373 6.851400
C 6.359208 3.718477 9.653494
C 5.104765 2.984843 7.112908
C 4.051762 2.369335 10.081492
C 6.459930 3.777373 13.108647
C 6.359208 3.718477 15.910741
C 5.104765 2.984843 13.370155
C 4.051762 2.369335 16.338739
C 7.664702 5.919044 -0.206719
C 7.563980 5.860148 2.595375
C 6.309537 5.126515 0.054788
C 5.256534 4.511007 3.023372
C 7.664702 5.919044 6.050528
C 7.563980 5.860148 8.852622
C 6.309537 5.126515 6.312035
C 5.256534 4.511007 9.280619
C 7.664702 5.919044 12.307775
C 7.563980 5.860148 15.109869
C 6.309537 5.126515 12.569282
C 5.256534 4.511007 15.537866
C 7.712997 1.635702 1.555200
C 7.612275 1.576806 4.357294
C 6.357832 0.843172 1.816708
C 5.304829 0.227664 4.785292
C 7.712997 1.635702 7.812447
C 7.612275 1.576806 10.614541
C 6.357832 0.843172 8.073955
C 5.304829 0.227664 11.042539
C 7.712997 1.635702 14.069694
C 7.612275 1.576806 16.871788
C 6.357832 0.843172 14.331202
C 5.304829 0.227664 17.299786
C 8.917769 3.777373 0.754328
C 8.817047 3.718477 3.556422
C 7.562604 2.984843 1.015835
C 6.509601 2.369335 3.984419
C 8.917769 3.777373 7.011575
C 8.817047 3.718477 9.813669
C 7.562604 2.984843 7.273082
C 6.509601 2.369335 10.241666
C 8.917769 3.777373 13.268822
C 8.817047 3.718477 16.070916
C 7.562604 2.984843 13.530329
C 6.509601 2.369335 16.498913
C 10.122541 5.919044 -0.046545
C 10.021819 5.860148 2.755549
C 8.767376 5.126515 0.214963
C 7.714373 4.511007 3.183547
C 10.122541 5.919044 6.210702
C 10.021819 5.860148 9.012796
C 8.767376 5.126515 6.472210
C 7.714373 4.511007 9.440794
C 10.122541 5.919044 12.467949
C 10.021819 5.860148 15.270043
C 8.767376 5.126515 12.729457
C 7.714373 4.511007 15.698041
