108
A
C 1.682079 2.912798 1.435040
C 1.756426 1.851355 2.580178
C 0.522785 0.674727 0.573976
C 0.722513 -0.501934 3.446868
C 1.682079 2.912798 5.453071
C 1.756426 1.851355 6.598209
C 0.522785 0.674727 4.592006
C 0.722513 -0.501934 7.464899
C 1.682079 2.912798 9.471101
C 1.756426 1.851355 10.616240
C 0.522785 0.674727 8.610037
C 0.722513 -0.501934 11.482929
C 1.509179 5.381270 1.435040
C 1.583526 4.319827 2.580178
C 0.349885 3.143200 0.573976
C 0.549613 1.966538 3.446868
C 1.509179 5.381270 5.453071
C 1.583526 4.319827 6.598209
C 0.349885 3.143200 4.592006
C 0.549613 1.966538 7.464899
C 1.509179 5.381270 9.471101
C 1.583526 4.319827 10.616240
C 0.349885 3.143200 8.610037
C 0.549613 1.966538 11.482929
C 1.336279 7.849743 1.435040
C 1.410626 6.788300 2.580178
C 0.176985 5.611673 0.573976
C 0.376713 4.435011 3.446868
C 1.336279 7.849743 5.453071
C 1.410626 6.788300 6.598209
C 0.176985 5.611673 4.592006
C 0.376713 4.435011 7.464899
C 1.336279 7.849743 9.471101
C 1.410626 6.788300 10.616240
C 0.176985 5.611673 8.610037
C 0.376713 4.435011 11.482929
C 4.196880 2.912798 1.435040
C 4.271227 1.851355 2.580178
C 3.037586 0.674727 0.573976
C 3.237314 -0.501934 3.446868
C 4.196880 2.912798 5.453071
C 4.271227 1.851355 6.598209
C 3.037586 0.674727 4.592006
C 3.237314 -0.501934 7.464899
C 4.196880 2.912798 9.471101
C 4.271227 1.851355 10.616240
C 3.037586 0.674727 8.610037
C 3.237314 -0.501934 11.482929
C 4.023980 5.381270 1.435040
C 4.098327 4.319827 2.580178
C 2.864686 3.143200 0.573976
C 3.064414 1.966538 3.446868
C 4.023980 5.381270 5.453071
C 4.098327 4.319827 6.598209
C 2.864686 3.143200 4.592006
C 3.064414 1.966538 7.464899
C 4.023980 5.381270 9.471101
C 4.098327 4.319827 10.616240
C 2.864686 3.143200 8.610037
C 3.064414 1.966538 11.482929
C 3.851080 7.849743 1.435040
C 3.925427 6.788300 2.580178
C 2.691786 5.611673 0.573976
C 2.891514 4.435011 3.446868
C 3.851080 7.849743 5.453071
C 3.925427 6.788300 6.598209
C 2.691786 5.611673 4.592006
C 2.891514 4.435011 7.464899
C 3.851080 7.849743 9.471101
C 3.925427 6.788300 10.616240
C 2.691786 5.611673 8.610037
C 2.891514 4.435011 11.482929
C 6.711681 2.912798 1.435040
C 6.786028 1.851355 2.580178
C 5.552387 0.674727 0.573976
C 5.752115 -0.501934 3.446868
C 6.711681 2.912798 5.453071
C 6.786028 1.851355 6.598209
C 5.552387 0.674727 4.592006
C 5.752115 -0.501934 7.464899
C 6.711681 2.912798 9.471101
C 6.786028 1.851355 10.616240
C 5.552387 0.674727 8.610037
C 5.752115 -0.501934 11.482929
C 6.538781 5.381270 1.435040
C 6.613128 4.319827 2.580178
C 5.379487 3.143200 0.573976
C 5.579215 1.966538 3.446868
C 6.538781 5.381270 5.453071
C 6.613128 4.319827 6.598209
C 5.379487 3.143200 4.592006
C 5.579215 1.966538 7.464899
C 6.538781 5.381270 9.471101
C 6.613128 4.319827 10.616240
C 5.379487 3.143200 8.610037
C 5.579215 1.966538 11.482929
C 6.365881 7.849743 1.435040
C 6.440228 6.788300 2.580178
C 5.206587 5.611673 0.573976
C 5.406315 4.435011 3.446868
C 6.365881 7.849743 5.453071
C 6.440228 6.788300 6.598209
C 5.206587 5.611673 4.592006
C 5.406315 4.435011 7.464899
C 6.365881 7.849743 9.471101
C 6.440228 6.788300 10.616240
C 5.206587 5.611673 8.610037
C 5.406315 4.435011 11.482929
