108
A
C 1.172658 2.192792 1.639314
C 1.322032 1.722088 3.813034
C 0.124127 0.799859 1.094926
C 0.906601 -0.122505 4.389685
C 1.172658 2.192792 7.107793
C 1.322032 1.722088 9.281514
C 0.124127 0.799859 6.563406
C 0.906601 -0.122505 9.858165
C 1.172658 2.192792 12.576273
C 1.322032 1.722088 14.749994
C 0.124127 0.799859 12.031886
C 0.906601 -0.122505 15.326645
C 0.444008 4.488910 1.639314
C 0.593382 4.018206 3.813034
C -0.604523 3.095977 1.094926
C 0.177951 2.173613 4.389685
C 0.444008 4.488910 7.107793
C 0.593382 4.018206 9.281514
C -0.604523 3.095977 6.563406
C 0.177951 2.173613 9.858165
C 0.444008 4.488910 12.576273
C 0.593382 4.018206 14.749994
C -0.604523 3.095977 12.031886
C 0.177951 2.173613 15.326645
C -0.284642 6.785027 1.639314
C -0.135268 6.314323 3.813034
C -1.333173 5.392094 1.094926
C -0.550699 4.469730 4.389685
C -0.284642 6.785027 7.107793
C -0.135268 6.314323 9.281514
C -1.333173 5.392094 6.563406
C -0.550699 4.469730 9.858165
C -0.284642 6.785027 12.576273
C -0.135268 6.314323 14.749994
C -1.333173 5.392094 12.031886
C -0.550699 4.469730 15.326645
C 3.664017 2.192792 1.639314
C 3.813390 1.722088 3.813034
C 2.615485 0.799859 1.094926
C 3.397960 -0.122505 4.389685
C 3.664017 2.192792 7.107793
C 3.813390 1.722088 9.281514
C 2.615485 0.799859 6.563406
C 3.397960 -0.122505 9.858165
C 3.664017 2.192792 12.576273
C 3.813390 1.722088 14.749994
C 2.615485 0.799859 12.031886
C 3.397960 -0.122505 15.326645
C 2.935367 4.488910 1.639314
C 3.084740 4.018206 3.813034
C 1.886835 3.095977 1.094926
C 2.669310 2.173613 4.389685
C 2.935367 4.488910 7.107793
C 3.084740 4.018206 9.281514
C 1.886835 3.095977 6.563406
C 2.669310 2.173613 9.858165
C 2.935367 4.488910 12.576273
C 3.084740 4.018206 14.749994
C 1.886835 3.095977 12.031886
C 2.669310 2.173613 15.326645
C 2.206717 6.785027 1.639314
C 2.356090 6.314323 3.813034
C 1.158185 5.392094 1.094926
C 1.940660 4.469730 4.389685
C 2.206717 6.785027 7.107793
C 2.356090 6.314323 9.281514
C 1.158185 5.392094 6.563406
C 1.940660 4.469730 9.858165
C 2.206717 6.785027 12.576273
C 2.356090 6.314323 14.749994
C 1.158185 5.392094 12.031886
C 1.940660 4.469730 15.326645
C 6.155376 2.192792 1.639314
C 6.304749 1.722088 3.813034
C 5.106844 0.799859 1.094926
C 5.889318 -0.122505 4.389685
C 6.155376 2.192792 7.107793
C 6.304749 1.722088 9.281514
C 5.106844 0.799859 6.563406
C 5.889318 -0.122505 9.858165
C 6.155376 2.192792 12.576273
C 6.304749 1.722088 14.749994
C 5.106844 0.799859 12.031886
C 5.889318 -0.122505 15.326645
C 5.426726 4.488910 1.639314
C 5.576099 4.018206 3.813034
C 4.378194 3.095977 1.094926
C 5.160668 2.173613 4.389685
C 5.426726 4.488910 7.107793
C 5.576099 4.018206 9.281514
C 4.378194 3.095977 6.563406
C 5.160668 2.173613 9.858165
C 5.426726 4.488910 12.576273
C 5.576099 4.018206 14.749994
C 4.378194 3.095977 12.031886
C 5.160668 2.173613 15.326645
C 4.698076 6.785027 1.639314
C 4.847449 6.314323 3.813034
C 3.649544 5.392094 1.094926
C 4.432018 4.469730 4.389685
C 4.698076 6.785027 7.107793
C 4.847449 6.314323 9.281514
C 3.649544 5.392094 6.563406
C 4.432018 4.469730 9.858165
C 4.698076 6.785027 12.576273
C 4.847449 6.314323 14.749994
C 3.649544 5.392094 12.031886
C 4.432018 4.469730 15.326645
