108
A
C 1.390463 2.535105 1.560241
C 1.534402 1.785285 3.190326
C 0.329004 0.741914 0.819445
C 0.837870 -0.301544 3.948731
C 1.390463 2.535105 6.319612
C 1.534402 1.785285 7.949697
C 0.329004 0.741914 5.578816
C 0.837870 -0.301544 8.708103
C 1.390463 2.535105 11.078984
C 1.534402 1.785285 12.709068
C 0.329004 0.741914 10.338188
C 0.837870 -0.301544 13.467474
C 0.933513 4.915485 1.560241
C 1.077452 4.165665 3.190326
C -0.127946 3.122295 0.819445
C 0.380920 2.078836 3.948731
C 0.933513 4.915485 6.319612
C 1.077452 4.165665 7.949697
C -0.127946 3.122295 5.578816
C 0.380920 2.078836 8.708103
C 0.933513 4.915485 11.078984
C 1.077452 4.165665 12.709068
C -0.127946 3.122295 10.338188
C 0.380920 2.078836 13.467474
C 0.476563 7.295865 1.560241
C 0.620502 6.546045 3.190326
C -0.584896 5.502675 0.819445
C -0.076030 4.459216 3.948731
C 0.476563 7.295865 6.319612
C 0.620502 6.546045 7.949697
C -0.584896 5.502675 5.578816
C -0.076030 4.459216 8.708103
C 0.476563 7.295865 11.078984
C 0.620502 6.546045 12.709068
C -0.584896 5.502675 10.338188
C -0.076030 4.459216 13.467474
C 3.893282 2.535105 1.560241
C 4.037221 1.785285 3.190326
C 2.831824 0.741914 0.819445
C 3.340689 -0.301544 3.948731
C 3.893282 2.535105 6.319612
C 4.037221 1.785285 7.949697
C 2.831824 0.741914 5.578816
C 3.340689 -0.301544 8.708103
C 3.893282 2.535105 11.078984
C 4.037221 1.785285 12.709068
C 2.831824 0.741914 10.338188
C 3.340689 -0.301544 13.467474
C 3.436332 4.915485 1.560241
C 3.580271 4.165665 3.190326
C 2.374874 3.122295 0.819445
C 2.883739 2.078836 3.948731
C 3.436332 4.915485 6.319612
C 3.580271 4.165665 7.949697
C 2.374874 3.122295 5.578816
C 2.883739 2.078836 8.708103
C 3.436332 4.915485 11.078984
C 3.580271 4.165665 12.709068
C 2.374874 3.122295 10.338188
C 2.883739 2.078836 13.467474
C 2.979382 7.295865 1.560241
C 3.123321 6.546045 3.190326
C 1.917924 5.502675 0.819445
C 2.426789 4.459216 3.948731
C 2.979382 7.295865 6.319612
C 3.123321 6.546045 7.949697
C 1.917924 5.502675 5.578816
C 2.426789 4.459216 8.708103
C 2.979382 7.295865 11.078984
C 3.123321 6.546045 12.709068
C 1.917924 5.502675 10.338188
C 2.426789 4.459216 13.467474
C 6.396102 2.535105 1.560241
C 6.540041 1.785285 3.190326
C 5.334643 0.741914 0.819445
C 5.843508 -0.301544 3.948731
C 6.396102 2.535105 6.319612
C 6.540041 1.785285 7.949697
C 5.334643 0.741914 5.578816
C 5.843508 -0.301544 8.708103
C 6.396102 2.535105 11.078984
C 6.540041 1.785285 12.709068
C 5.334643 0.741914 10.338188
C 5.843508 -0.301544 13.467474
C 5.939152 4.915485 1.560241
C 6.083091 4.165665 3.190326
C 4.877693 3.122295 0.819445
C 5.386558 2.078836 3.948731
C 5.939152 4.915485 6.319612
C 6.083091 4.165665 7.949697
C 4.877693 3.122295 5.578816
C 5.386558 2.078836 8.708103
C 5.939152 4.915485 11.078984
C 6.083091 4.165665 12.709068
C 4.877693 3.122295 10.338188
C 5.386558 2.078836 13.467474
C 5.482202 7.295865 1.560241
C 5.626141 6.546045 3.190326
C 4.420743 5.502675 0.819445
C 4.929608 4.459216 3.948731
C 5.482202 7.295865 6.319612
C 5.626141 6.546045 7.949697
C 4.420743 5.502675 5.578816
C 4.929608 4.459216 8.708103
C 5.482202 7.295865 11.078984
C 5.626141 6.546045 12.709068
C 4.420743 5.502675 10.338188
C 4.929608 4.459216 13.467474
