108
A
C 0.971982 1.755877 1.683030
C 1.032435 1.635911 4.723778
C -0.186015 0.868915 1.534693
C 0.934758 0.101725 4.929391
C 0.971982 1.755877 8.118476
C 1.032435 1.635911 11.159224
C -0.186015 0.868915 7.970139
C 0.934758 0.101725 11.364836
C 0.971982 1.755877 14.553922
C 1.032435 1.635911 17.594670
C -0.186015 0.868915 14.405585
C 0.934758 0.101725 17.800282
C -0.127168 3.937091 1.683030
C -0.066715 3.817125 4.723778
C -1.285165 3.050129 1.534693
C -0.164392 2.282939 4.929391
C -0.127168 3.937091 8.118476
C -0.066715 3.817125 11.159224
C -1.285165 3.050129 7.970139
C -0.164392 2.282939 11.364836
C -0.127168 3.937091 14.553922
C -0.066715 3.817125 17.594670
C -1.285165 3.050129 14.405585
C -0.164392 2.282939 17.800282
C -1.226318 6.118305 1.683030
C -1.165865 5.998339 4.723778
C -2.384315 5.231343 1.534693
C -1.263542 4.464153 4.929391
C -1.226318 6.118305 8.118476
C -1.165865 5.998339 11.159224
C -2.384315 5.231343 7.970139
C -1.263542 4.464153 11.364836
C -1.226318 6.118305 14.553922
C -1.165865 5.998339 17.594670
C -2.384315 5.231343 14.405585
C -1.263542 4.464153 17.800282
C 3.447712 1.755877 1.683030
C 3.508166 1.635911 4.723778
C 2.289716 0.868915 1.534693
C 3.410488 0.101725 4.929391
C 3.447712 1.755877 8.118476
C 3.508166 1.635911 11.159224
C 2.289716 0.868915 7.970139
C 3.410488 0.101725 11.364836
C 3.447712 1.755877 14.553922
C 3.508166 1.635911 17.594670
C 2.289716 0.868915 14.405585
C 3.410488 0.101725 17.800282
C 2.348562 3.937091 1.683030
C 2.409016 3.817125 4.723778
C 1.190566 3.050129 1.534693
C 2.311338 2.282939 4.929391
C 2.348562 3.937091 8.118476
C 2.409016 3.817125 11.159224
C 1.190566 3.050129 7.970139
C 2.311338 2.282939 11.364836
C 2.348562 3.937091 14.553922
C 2.409016 3.817125 17.594670
C 1.190566 3.050129 14.405585
C 2.311338 2.282939 17.800282
C 1.249412 6.118305 1.683030
C 1.309866 5.998339 4.723778
C 0.091416 5.231343 1.534693
C 1.212188 4.464153 4.929391
C 1.249412 6.118305 8.118476
C 1.309866 5.998339 11.159224
C 0.091416 5.231343 7.970139
C 1.212188 4.464153 11.364836
C 1.249412 6.118305 14.553922
C 1.309866 5.998339 17.594670
C 0.091416 5.231343 14.405585
C 1.212188 4.464153 17.800282
C 5.923443 1.755877 1.683030
C 5.983896 1.635911 4.723778
C 4.765446 0.868915 1.534693
C 5.886219 0.101725 4.929391
C 5.923443 1.755877 8.118476
C 5.983896 1.635911 11.159224
C 4.765446 0.868915 7.970139
C 5.886219 0.101725 11.364836
C 5.923443 1.755877 14.553922
C 5.983896 1.635911 17.594670
C 4.765446 0.868915 14.405585
C 5.886219 0.101725 17.800282
C 4.824293 3.937091 1.683030
C 4.884746 3.817125 4.723778
C 3.666296 3.050129 1.534693
C 4.787069 2.282939 4.929391
C 4.824293 3.937091 8.118476
C 4.884746 3.817125 11.159224
C 3.666296 3.050129 7.970139
C 4.787069 2.282939 11.364836
C 4.824293 3.937091 14.553922
C 4.884746 3.817125 17.594670
C 3.666296 3.050129 14.405585
C 4.787069 2.282939 17.800282
C 3.725143 6.118305 1.683030
C 3.785596 5.998339 4.723778
C 2.567146 5.231343 1.534693
C 3.687919 4.464153 4.929391
C 3.725143 6.118305 8.118476
C 3.785596 5.998339 11.159224
C 2.567146 5.231343 7.970139
C 3.687919 4.464153 11.364836
C 3.725143 6.118305 14.553922
C 3.785596 5.998339 17.594670
C 2.567146 5.231343 14.405585
C 3.687919 4.464153 17.800282
