108
A
C 1.379266 2.519143 1.564698
C 1.524749 1.782412 3.217801
C 0.320106 0.744682 0.831104
C 0.841876 -0.293138 3.969604
C 1.379266 2.519143 6.356302
C 1.524749 1.782412 8.009405
C 0.320106 0.744682 5.622707
C 0.841876 -0.293138 8.761208
C 1.379266 2.519143 11.147905
C 1.524749 1.782412 12.801009
C 0.320106 0.744682 10.414311
C 0.841876 -0.293138 13.552811
C 0.909966 4.895693 1.564698
C 1.055449 4.158962 3.217801
C -0.149194 3.121232 0.831104
C 0.372576 2.083412 3.969604
C 0.909966 4.895693 6.356302
C 1.055449 4.158962 8.009405
C -0.149194 3.121232 5.622707
C 0.372576 2.083412 8.761208
C 0.909966 4.895693 11.147905
C 1.055449 4.158962 12.801009
C -0.149194 3.121232 10.414311
C 0.372576 2.083412 13.552811
C 0.440666 7.272243 1.564698
C 0.586149 6.535512 3.217801
C -0.618494 5.497782 0.831104
C -0.096724 4.459962 3.969604
C 0.440666 7.272243 6.356302
C 0.586149 6.535512 8.009405
C -0.618494 5.497782 5.622707
C -0.096724 4.459962 8.761208
C 0.440666 7.272243 11.147905
C 0.586149 6.535512 12.801009
C -0.618494 5.497782 10.414311
C -0.096724 4.459962 13.552811
C 3.881564 2.519143 1.564698
C 4.027047 1.782412 3.217801
C 2.822404 0.744682 0.831104
C 3.344175 -0.293138 3.969604
C 3.881564 2.519143 6.356302
C 4.027047 1.782412 8.009405
C 2.822404 0.744682 5.622707
C 3.344175 -0.293138 8.761208
C 3.881564 2.519143 11.147905
C 4.027047 1.782412 12.801009
C 2.822404 0.744682 10.414311
C 3.344175 -0.293138 13.552811
C 3.412264 4.895693 1.564698
C 3.557747 4.158962 3.217801
C 2.353104 3.121232 0.831104
C 2.874875 2.083412 3.969604
C 3.412264 4.895693 6.356302
C 3.557747 4.158962 8.009405
C 2.353104 3.121232 5.622707
C 2.874875 2.083412 8.761208
C 3.412264 4.895693 11.147905
C 3.557747 4.158962 12.801009
C 2.353104 3.121232 10.414311
C 2.874875 2.083412 13.552811
C 2.942964 7.272243 1.564698
C 3.088447 6.535512 3.217801
C 1.883804 5.497782 0.831104
C 2.405575 4.459962 3.969604
C 2.942964 7.272243 6.356302
C 3.088447 6.535512 8.009405
C 1.883804 5.497782 5.622707
C 2.405575 4.459962 8.761208
C 2.942964 7.272243 11.147905
C 3.088447 6.535512 12.801009
C 1.883804 5.497782 10.414311
C 2.405575 4.459962 13.552811
C 6.383863 2.519143 1.564698
C 6.529346 1.782412 3.217801
C 5.324703 0.744682 0.831104
C 5.846473 -0.293138 3.969604
C 6.383863 2.519143 6.356302
C 6.529346 1.782412 8.009405
C 5.324703 0.744682 5.622707
C 5.846473 -0.293138 8.761208
C 6.383863 2.519143 11.147905
C 6.529346 1.782412 12.801009
C 5.324703 0.744682 10.414311
C 5.846473 -0.293138 13.552811
C 5.914563 4.895693 1.564698
C 6.060046 4.158962 3.217801
C 4.855403 3.121232 0.831104
C 5.377173 2.083412 3.969604
C 5.914563 4.895693 6.356302
C 6.060046 4.158962 8.009405
C 4.855403 3.121232 5.622707
C 5.377173 2.083412 8.761208
C 5.914563 4.895693 11.147905
C 6.060046 4.158962 12.801009
C 4.855403 3.121232 10.414311
C 5.377173 2.083412 13.552811
C 5.445263 7.272243 1.564698
C 5.590746 6.535512 3.217801
C 4.386103 5.497782 0.831104
C 4.907873 4.459962 3.969604
C 5.445263 7.272243 6.356302
C 5.590746 6.535512 8.009405
C 4.386103 5.497782 5.622707
C 4.907873 4.459962 8.761208
C 5.445263 7.272243 11.147905
C 5.590746 6.535512 12.801009
C 4.386103 5.497782 10.414311
C 4.907873 4.459962 13.552811
