108
A
C 1.613127 2.828967 1.465956
C 1.708160 1.836992 2.709266
C 0.482433 0.689908 0.623640
C 0.751373 -0.457222 3.559522
C 1.613127 2.828967 5.645148
C 1.708160 1.836992 6.888457
C 0.482433 0.689908 4.802832
C 0.751373 -0.457222 7.738714
C 1.613127 2.828967 9.824340
C 1.708160 1.836992 11.067649
C 0.482433 0.689908 8.982023
C 0.751373 -0.457222 11.917906
C 1.378477 5.278289 1.465956
C 1.473510 4.286314 2.709266
C 0.247783 3.139230 0.623640
C 0.516723 1.992100 3.559522
C 1.378477 5.278289 5.645148
C 1.473510 4.286314 6.888457
C 0.247783 3.139230 4.802832
C 0.516723 1.992100 7.738714
C 1.378477 5.278289 9.824340
C 1.473510 4.286314 11.067649
C 0.247783 3.139230 8.982023
C 0.516723 1.992100 11.917906
C 1.143827 7.727611 1.465956
C 1.238860 6.735636 2.709266
C 0.013133 5.588552 0.623640
C 0.282073 4.441422 3.559522
C 1.143827 7.727611 5.645148
C 1.238860 6.735636 6.888457
C 0.013133 5.588552 4.802832
C 0.282073 4.441422 7.738714
C 1.143827 7.727611 9.824340
C 1.238860 6.735636 11.067649
C 0.013133 5.588552 8.982023
C 0.282073 4.441422 11.917906
C 4.125323 2.828967 1.465956
C 4.220356 1.836992 2.709266
C 2.994630 0.689908 0.623640
C 3.263569 -0.457222 3.559522
C 4.125323 2.828967 5.645148
C 4.220356 1.836992 6.888457
C 2.994630 0.689908 4.802832
C 3.263569 -0.457222 7.738714
C 4.125323 2.828967 9.824340
C 4.220356 1.836992 11.067649
C 2.994630 0.689908 8.982023
C 3.263569 -0.457222 11.917906
C 3.890673 5.278289 1.465956
C 3.985706 4.286314 2.709266
C 2.759980 3.139230 0.623640
C 3.028919 1.992100 3.559522
C 3.890673 5.278289 5.645148
C 3.985706 4.286314 6.888457
C 2.759980 3.139230 4.802832
C 3.028919 1.992100 7.738714
C 3.890673 5.278289 9.824340
C 3.985706 4.286314 11.067649
C 2.759980 3.139230 8.982023
C 3.028919 1.992100 11.917906
C 3.656023 7.727611 1.465956
C 3.751056 6.735636 2.709266
C 2.525330 5.588552 0.623640
C 2.794269 4.441422 3.559522
C 3.656023 7.727611 5.645148
C 3.751056 6.735636 6.888457
C 2.525330 5.588552 4.802832
C 2.794269 4.441422 7.738714
C 3.656023 7.727611 9.824340
C 3.751056 6.735636 11.067649
C 2.525330 5.588552 8.982023
C 2.794269 4.441422 11.917906
C 6.637519 2.828967 1.465956
C 6.732553 1.836992 2.709266
C 5.506826 0.689908 0.623640
C 5.775766 -0.457222 3.559522
C 6.637519 2.828967 5.645148
C 6.732553 1.836992 6.888457
C 5.506826 0.689908 4.802832
C 5.775766 -0.457222 7.738714
C 6.637519 2.828967 9.824340
C 6.732553 1.836992 11.067649
C 5.506826 0.689908 8.982023
C 5.775766 -0.457222 11.917906
C 6.402869 5.278289 1.465956
C 6.497903 4.286314 2.709266
C 5.272176 3.139230 0.623640
C 5.541116 1.992100 3.559522
C 6.402869 5.278289 5.645148
C 6.497903 4.286314 6.888457
C 5.272176 3.139230 4.802832
C 5.541116 1.992100 7.738714
C 6.402869 5.278289 9.824340
C 6.497903 4.286314 11.067649
C 5.272176 3.139230 8.982023
C 5.541116 1.992100 11.917906
C 6.168219 7.727611 1.465956
C 6.263253 6.735636 2.709266
C 5.037526 5.588552 0.623640
C 5.306466 4.441422 3.559522
C 6.168219 7.727611 5.645148
C 6.263253 6.735636 6.888457
C 5.037526 5.588552 4.802832
C 5.306466 4.441422 7.738714
C 6.168219 7.727611 9.824340
C 6.263253 6.735636 11.067649
C 5.037526 5.588552 8.982023
C 5.306466 4.441422 11.917906
