108
A
C 2.810092 1.658575 0.880886
C 2.637582 1.556756 3.310718
C 1.369486 0.808210 1.338121
C 0.446405 0.263567 3.996536
C 2.810092 1.658575 6.750676
C 2.637582 1.556756 9.180508
C 1.369486 0.808210 7.207911
C 0.446405 0.263567 9.866326
C 2.810092 1.658575 12.620467
C 2.637582 1.556756 15.050298
C 1.369486 0.808210 13.077701
C 0.446405 0.263567 15.736117
C 3.992880 3.802129 -0.502439
C 3.820370 3.700310 1.927392
C 2.552275 2.951764 -0.045205
C 1.629193 2.407121 2.613211
C 3.992880 3.802129 5.367351
C 3.820370 3.700310 7.797183
C 2.552275 2.951764 5.824586
C 1.629193 2.407121 8.483001
C 3.992880 3.802129 11.237141
C 3.820370 3.700310 13.666973
C 2.552275 2.951764 11.694376
C 1.629193 2.407121 14.352791
C 5.175668 5.945683 -1.885764
C 5.003158 5.843864 0.544067
C 3.735063 5.095318 -1.428530
C 2.811981 4.550675 1.229885
C 5.175668 5.945683 3.984026
C 5.003158 5.843864 6.413857
C 3.735063 5.095318 4.441260
C 2.811981 4.550675 7.099676
C 5.175668 5.945683 9.853816
C 5.003158 5.843864 12.283648
C 3.735063 5.095318 10.311051
C 2.811981 4.550675 12.969466
C 5.259086 1.658575 1.157551
C 5.086576 1.556756 3.587383
C 3.818481 0.808210 1.614786
C 2.895399 0.263567 4.273201
C 5.259086 1.658575 7.027341
C 5.086576 1.556756 9.457173
C 3.818481 0.808210 7.484576
C 2.895399 0.263567 10.142991
C 5.259086 1.658575 12.897132
C 5.086576 1.556756 15.326963
C 3.818481 0.808210 13.354366
C 2.895399 0.263567 16.012782
C 6.441874 3.802129 -0.225774
C 6.269364 3.700310 2.204057
C 5.001269 2.951764 0.231460
C 4.078187 2.407121 2.889876
C 6.441874 3.802129 5.644016
C 6.269364 3.700310 8.073848
C 5.001269 2.951764 6.101251
C 4.078187 2.407121 8.759666
C 6.441874 3.802129 11.513807
C 6.269364 3.700310 13.943638
C 5.001269 2.951764 11.971041
C 4.078187 2.407121 14.629456
C 7.624662 5.945683 -1.609099
C 7.452153 5.843864 0.820732
C 6.184057 5.095318 -1.151865
C 5.260976 4.550675 1.506551
C 7.624662 5.945683 4.260691
C 7.452153 5.843864 6.690522
C 6.184057 5.095318 4.717925
C 5.260976 4.550675 7.376341
C 7.624662 5.945683 10.130481
C 7.452153 5.843864 12.560313
C 6.184057 5.095318 10.587716
C 5.260976 4.550675 13.246131
C 7.708080 1.658575 1.434216
C 7.535570 1.556756 3.864048
C 6.267475 0.808210 1.891451
C 5.344393 0.263567 4.549866
C 7.708080 1.658575 7.304007
C 7.535570 1.556756 9.733838
C 6.267475 0.808210 7.761241
C 5.344393 0.263567 10.419656
C 7.708080 1.658575 13.173797
C 7.535570 1.556756 15.603628
C 6.267475 0.808210 13.631031
C 5.344393 0.263567 16.289447
C 8.890868 3.802129 0.050891
C 8.718359 3.700310 2.480722
C 7.450263 2.951764 0.508125
C 6.527181 2.407121 3.166541
C 8.890868 3.802129 5.920681
C 8.718359 3.700310 8.350513
C 7.450263 2.951764 6.377916
C 6.527181 2.407121 9.036331
C 8.890868 3.802129 11.790472
C 8.718359 3.700310 14.220303
C 7.450263 2.951764 12.247706
C 6.527181 2.407121 14.906121
C 10.073656 5.945683 -1.332434
C 9.901147 5.843864 1.097397
C 8.633051 5.095318 -0.875200
C 7.709970 4.550675 1.783216
C 10.073656 5.945683 4.537356
C 9.901147 5.843864 6.967187
C 8.633051 5.095318 4.994590
C 7.709970 4.550675 7.653006
C 10.073656 5.945683 10.407146
C 9.901147 5.843864 12.836978
C 8.633051 5.095318 10.864381
C 7.709970 4.550675 13.522796
