108
A
C 2.831670 1.700129 0.175279
C 2.532188 1.520321 2.056895
C 1.240394 0.744682 1.052155
C 0.547559 0.328801 3.148288
C 2.831670 1.700129 5.342804
C 2.532188 1.520321 7.224420
C 1.240394 0.744682 6.219680
C 0.547559 0.328801 8.315813
C 2.831670 1.700129 10.510329
C 2.532188 1.520321 12.391945
C 1.240394 0.744682 11.387205
C 0.547559 0.328801 13.483338
C 3.974613 3.847095 -2.263742
C 3.675131 3.667287 -0.382126
C 2.383336 2.891648 -1.386865
C 1.690501 2.475768 0.709267
C 3.974613 3.847095 2.903783
C 3.675131 3.667287 4.785399
C 2.383336 2.891648 3.780660
C 1.690501 2.475768 5.876792
C 3.974613 3.847095 8.071308
C 3.675131 3.667287 9.952924
C 2.383336 2.891648 8.948185
C 1.690501 2.475768 11.044317
C 5.117555 5.994062 -4.702763
C 4.818073 5.814253 -2.821147
C 3.526279 5.038614 -3.825886
C 2.833444 4.622734 -1.729754
C 5.117555 5.994062 0.464762
C 4.818073 5.814253 2.346378
C 3.526279 5.038614 1.341639
C 2.833444 4.622734 3.437771
C 5.117555 5.994062 5.632287
C 4.818073 5.814253 7.513903
C 3.526279 5.038614 6.509164
C 2.833444 4.622734 8.605296
C 5.264634 1.700129 0.663083
C 4.965152 1.520321 2.544699
C 3.673357 0.744682 1.539960
C 2.980522 0.328801 3.636092
C 5.264634 1.700129 5.830608
C 4.965152 1.520321 7.712224
C 3.673357 0.744682 6.707485
C 2.980522 0.328801 8.803617
C 5.264634 1.700129 10.998133
C 4.965152 1.520321 12.879749
C 3.673357 0.744682 11.875010
C 2.980522 0.328801 13.971142
C 6.407576 3.847095 -1.775938
C 6.108094 3.667287 0.105678
C 4.816300 2.891648 -0.899061
C 4.123465 2.475768 1.197071
C 6.407576 3.847095 3.391587
C 6.108094 3.667287 5.273203
C 4.816300 2.891648 4.268464
C 4.123465 2.475768 6.364596
C 6.407576 3.847095 8.559112
C 6.108094 3.667287 10.440728
C 4.816300 2.891648 9.435989
C 4.123465 2.475768 11.532121
C 7.550519 5.994062 -4.214959
C 7.251037 5.814253 -2.333342
C 5.959242 5.038614 -3.338082
C 5.266407 4.622734 -1.241950
C 7.550519 5.994062 0.952566
C 7.251037 5.814253 2.834183
C 5.959242 5.038614 1.829443
C 5.266407 4.622734 3.925575
C 7.550519 5.994062 6.120091
C 7.251037 5.814253 8.001708
C 5.959242 5.038614 6.996968
C 5.266407 4.622734 9.093100
C 7.697597 1.700129 1.150887
C 7.398115 1.520321 3.032503
C 6.106321 0.744682 2.027764
C 5.413486 0.328801 4.123896
C 7.697597 1.700129 6.318412
C 7.398115 1.520321 8.200028
C 6.106321 0.744682 7.195289
C 5.413486 0.328801 9.291421
C 7.697597 1.700129 11.485937
C 7.398115 1.520321 13.367553
C 6.106321 0.744682 12.362814
C 5.413486 0.328801 14.458946
C 8.840540 3.847095 -1.288134
C 8.541058 3.667287 0.593483
C 7.249263 2.891648 -0.411257
C 6.556428 2.475768 1.684875
C 8.840540 3.847095 3.879391
C 8.541058 3.667287 5.761008
C 7.249263 2.891648 4.756268
C 6.556428 2.475768 6.852400
C 8.840540 3.847095 9.046916
C 8.541058 3.667287 10.928533
C 7.249263 2.891648 9.923793
C 6.556428 2.475768 12.019925
C 9.983482 5.994062 -3.727155
C 9.684000 5.814253 -1.845538
C 8.392206 5.038614 -2.850278
C 7.699371 4.622734 -0.754146
C 9.983482 5.994062 1.440370
C 9.684000 5.814253 3.321987
C 8.392206 5.038614 2.317247
C 7.699371 4.622734 4.413379
C 9.983482 5.994062 6.607895
C 9.684000 5.814253 8.489512
C 8.392206 5.038614 7.484772
C 7.699371 4.622734 9.580904
