108
A
C 1.813973 3.066106 1.374212
C 1.843305 1.877208 2.352797
C 0.592933 0.646598 0.489758
C 0.665268 -0.584024 3.239115
C 1.813973 3.066106 5.102153
C 1.843305 1.877208 6.080738
C 0.592933 0.646598 4.217699
C 0.665268 -0.584024 6.967056
C 1.813973 3.066106 8.830094
C 1.843305 1.877208 9.808679
C 0.592933 0.646598 7.945640
C 0.665268 -0.584024 10.694997
C 1.752223 5.569050 1.374212
C 1.781555 4.380152 2.352797
C 0.531183 3.149542 0.489758
C 0.603518 1.918919 3.239115
C 1.752223 5.569050 5.102153
C 1.781555 4.380152 6.080738
C 0.531183 3.149542 4.217699
C 0.603518 1.918919 6.967056
C 1.752223 5.569050 8.830094
C 1.781555 4.380152 9.808679
C 0.531183 3.149542 7.945640
C 0.603518 1.918919 10.694997
C 1.690473 8.071994 1.374212
C 1.719805 6.883095 2.352797
C 0.469433 5.652485 0.489758
C 0.541768 4.421863 3.239115
C 1.690473 8.071994 5.102153
C 1.719805 6.883095 6.080738
C 0.469433 5.652485 4.217699
C 0.541768 4.421863 6.967056
C 1.690473 8.071994 8.830094
C 1.719805 6.883095 9.808679
C 0.469433 5.652485 7.945640
C 0.541768 4.421863 10.694997
C 4.333463 3.066106 1.374212
C 4.362794 1.877208 2.352797
C 3.112422 0.646598 0.489758
C 3.184758 -0.584024 3.239115
C 4.333463 3.066106 5.102153
C 4.362794 1.877208 6.080738
C 3.112422 0.646598 4.217699
C 3.184758 -0.584024 6.967056
C 4.333463 3.066106 8.830094
C 4.362794 1.877208 9.808679
C 3.112422 0.646598 7.945640
C 3.184758 -0.584024 10.694997
C 4.271713 5.569050 1.374212
C 4.301044 4.380152 2.352797
C 3.050672 3.149542 0.489758
C 3.123008 1.918919 3.239115
C 4.271713 5.569050 5.102153
C 4.301044 4.380152 6.080738
C 3.050672 3.149542 4.217699
C 3.123008 1.918919 6.967056
C 4.271713 5.569050 8.830094
C 4.301044 4.380152 9.808679
C 3.050672 3.149542 7.945640
C 3.123008 1.918919 10.694997
C 4.209963 8.071994 1.374212
C 4.239294 6.883095 2.352797
C 2.988922 5.652485 0.489758
C 3.061258 4.421863 3.239115
C 4.209963 8.071994 5.102153
C 4.239294 6.883095 6.080738
C 2.988922 5.652485 4.217699
C 3.061258 4.421863 6.967056
C 4.209963 8.071994 8.830094
C 4.239294 6.883095 9.808679
C 2.988922 5.652485 7.945640
C 3.061258 4.421863 10.694997
C 6.852953 3.066106 1.374212
C 6.882284 1.877208 2.352797
C 5.631912 0.646598 0.489758
C 5.704247 -0.584024 3.239115
C 6.852953 3.066106 5.102153
C 6.882284 1.877208 6.080738
C 5.631912 0.646598 4.217699
C 5.704247 -0.584024 6.967056
C 6.852953 3.066106 8.830094
C 6.882284 1.877208 9.808679
C 5.631912 0.646598 7.945640
C 5.704247 -0.584024 10.694997
C 6.791203 5.569050 1.374212
C 6.820534 4.380152 2.352797
C 5.570162 3.149542 0.489758
C 5.642497 1.918919 3.239115
C 6.791203 5.569050 5.102153
C 6.820534 4.380152 6.080738
C 5.570162 3.149542 4.217699
C 5.642497 1.918919 6.967056
C 6.791203 5.569050 8.830094
C 6.820534 4.380152 9.808679
C 5.570162 3.149542 7.945640
C 5.642497 1.918919 10.694997
C 6.729453 8.071994 1.374212
C 6.758784 6.883095 2.352797
C 5.508412 5.652485 0.489758
C 5.580747 4.421863 3.239115
C 6.729453 8.071994 5.102153
C 6.758784 6.883095 6.080738
C 5.508412 5.652485 4.217699
C 5.580747 4.421863 6.967056
C 6.729453 8.071994 8.830094
C 6.758784 6.883095 9.808679
C 5.508412 5.652485 7.945640
C 5.580747 4.421863 10.694997
