108
A
C 2.810869 1.660006 0.857929
C 2.633914 1.555502 3.266142
C 1.364979 0.806023 1.328242
C 0.449949 0.265813 3.967270
C 2.810869 1.660006 6.703503
C 2.633914 1.555502 9.111716
C 1.364979 0.806023 7.173816
C 0.449949 0.265813 9.812844
C 2.810869 1.660006 12.549077
C 2.633914 1.555502 14.957291
C 1.364979 0.806023 13.019390
C 0.449949 0.265813 15.658419
C 3.992284 3.803677 -0.561800
C 3.815328 3.699173 1.846413
C 2.546393 2.949694 -0.091487
C 1.631363 2.409485 2.547542
C 3.992284 3.803677 5.283775
C 3.815328 3.699173 7.691988
C 2.546393 2.949694 5.754087
C 1.631363 2.409485 8.393116
C 3.992284 3.803677 11.129349
C 3.815328 3.699173 13.537562
C 2.546393 2.949694 11.599662
C 1.631363 2.409485 14.238690
C 5.173698 5.947349 -1.981528
C 4.996743 5.842845 0.426685
C 3.727807 5.093366 -1.511215
C 2.812778 4.553157 1.127813
C 5.173698 5.947349 3.864046
C 4.996743 5.842845 6.272259
C 3.727807 5.093366 4.334359
C 2.812778 4.553157 6.973387
C 5.173698 5.947349 9.709620
C 4.996743 5.842845 12.117833
C 3.727807 5.093366 10.179933
C 2.812778 4.553157 12.818962
C 5.259311 1.660006 1.141875
C 5.082355 1.555502 3.550088
C 3.813420 0.806023 1.612187
C 2.898390 0.265813 4.251216
C 5.259311 1.660006 6.987449
C 5.082355 1.555502 9.395662
C 3.813420 0.806023 7.457762
C 2.898390 0.265813 10.096790
C 5.259311 1.660006 12.833023
C 5.082355 1.555502 15.241236
C 3.813420 0.806023 13.303336
C 2.898390 0.265813 15.942364
C 6.440725 3.803677 -0.277854
C 6.263770 3.699173 2.130359
C 4.994834 2.949694 0.192459
C 4.079805 2.409485 2.831487
C 6.440725 3.803677 5.567720
C 6.263770 3.699173 7.975933
C 4.994834 2.949694 6.038033
C 4.079805 2.409485 8.677062
C 6.440725 3.803677 11.413295
C 6.263770 3.699173 13.821508
C 4.994834 2.949694 11.883607
C 4.079805 2.409485 14.522636
C 7.622139 5.947349 -1.697582
C 7.445184 5.842845 0.710631
C 6.176249 5.093366 -1.227270
C 5.261219 4.553157 1.411759
C 7.622139 5.947349 4.147992
C 7.445184 5.842845 6.556205
C 6.176249 5.093366 4.618305
C 5.261219 4.553157 7.257333
C 7.622139 5.947349 9.993566
C 7.445184 5.842845 12.401779
C 6.176249 5.093366 10.463879
C 5.261219 4.553157 13.102907
C 7.707752 1.660006 1.425820
C 7.530797 1.555502 3.834033
C 6.261861 0.806023 1.896133
C 5.346832 0.265813 4.535162
C 7.707752 1.660006 7.271395
C 7.530797 1.555502 9.679608
C 6.261861 0.806023 7.741707
C 5.346832 0.265813 10.380736
C 7.707752 1.660006 13.116969
C 7.530797 1.555502 15.525182
C 6.261861 0.806023 13.587282
C 5.346832 0.265813 16.226310
C 8.889166 3.803677 0.006092
C 8.712211 3.699173 2.414305
C 7.443276 2.949694 0.476405
C 6.528246 2.409485 3.115433
C 8.889166 3.803677 5.851666
C 8.712211 3.699173 8.259879
C 7.443276 2.949694 6.321979
C 6.528246 2.409485 8.961007
C 8.889166 3.803677 11.697240
C 8.712211 3.699173 14.105453
C 7.443276 2.949694 12.167553
C 6.528246 2.409485 14.806582
C 10.070581 5.947349 -1.413637
C 9.893625 5.842845 0.994576
C 8.624690 5.093366 -0.943324
C 7.709660 4.553157 1.695705
C 10.070581 5.947349 4.431938
C 9.893625 5.842845 6.840151
C 8.624690 5.093366 4.902250
C 7.709660 4.553157 7.541279
C 10.070581 5.947349 10.277512
C 9.893625 5.842845 12.685725
C 8.624690 5.093366 10.747824
C 7.709660 4.553157 13.386853
