108
A
C 1.875804 3.135239 1.345041
C 1.881918 1.888698 2.253791
C 0.623084 0.633764 0.454465
C 0.637641 -0.621173 3.144727
C 1.875804 3.135239 4.944053
C 1.881918 1.888698 5.852804
C 0.623084 0.633764 4.053477
C 0.637641 -0.621173 6.743739
C 1.875804 3.135239 8.543065
C 1.881918 1.888698 9.451816
C 0.623084 0.633764 7.652490
C 0.637641 -0.621173 10.342751
C 1.863454 5.653503 1.345041
C 1.869568 4.406962 2.253791
C 0.610734 3.152028 0.454465
C 0.625291 1.897092 3.144727
C 1.863454 5.653503 4.944053
C 1.869568 4.406962 5.852804
C 0.610734 3.152028 4.053477
C 0.625291 1.897092 6.743739
C 1.863454 5.653503 8.543065
C 1.869568 4.406962 9.451816
C 0.610734 3.152028 7.652490
C 0.625291 1.897092 10.342751
C 1.851104 8.171767 1.345041
C 1.857218 6.925227 2.253791
C 0.598384 5.670292 0.454465
C 0.612941 4.415356 3.144727
C 1.851104 8.171767 4.944053
C 1.857218 6.925227 5.852804
C 0.598384 5.670292 4.053477
C 0.612941 4.415356 6.743739
C 1.851104 8.171767 8.543065
C 1.857218 6.925227 9.451816
C 0.598384 5.670292 7.652490
C 0.612941 4.415356 10.342751
C 4.397378 3.135239 1.345041
C 4.403491 1.888698 2.253791
C 3.144658 0.633764 0.454465
C 3.159214 -0.621173 3.144727
C 4.397378 3.135239 4.944053
C 4.403491 1.888698 5.852804
C 3.144658 0.633764 4.053477
C 3.159214 -0.621173 6.743739
C 4.397378 3.135239 8.543065
C 4.403491 1.888698 9.451816
C 3.144658 0.633764 7.652490
C 3.159214 -0.621173 10.342751
C 4.385028 5.653503 1.345041
C 4.391141 4.406962 2.253791
C 3.132308 3.152028 0.454465
C 3.146864 1.897092 3.144727
C 4.385028 5.653503 4.944053
C 4.391141 4.406962 5.852804
C 3.132308 3.152028 4.053477
C 3.146864 1.897092 6.743739
C 4.385028 5.653503 8.543065
C 4.391141 4.406962 9.451816
C 3.132308 3.152028 7.652490
C 3.146864 1.897092 10.342751
C 4.372678 8.171767 1.345041
C 4.378791 6.925227 2.253791
C 3.119958 5.670292 0.454465
C 3.134514 4.415356 3.144727
C 4.372678 8.171767 4.944053
C 4.378791 6.925227 5.852804
C 3.119958 5.670292 4.053477
C 3.134514 4.415356 6.743739
C 4.372678 8.171767 8.543065
C 4.378791 6.925227 9.451816
C 3.119958 5.670292 7.652490
C 3.134514 4.415356 10.342751
C 6.918951 3.135239 1.345041
C 6.925064 1.888698 2.253791
C 5.666231 0.633764 0.454465
C 5.680787 -0.621173 3.144727
C 6.918951 3.135239 4.944053
C 6.925064 1.888698 5.852804
C 5.666231 0.633764 4.053477
C 5.680787 -0.621173 6.743739
C 6.918951 3.135239 8.543065
C 6.925064 1.888698 9.451816
C 5.666231 0.633764 7.652490
C 5.680787 -0.621173 10.342751
C 6.906601 5.653503 1.345041
C 6.912714 4.406962 2.253791
C 5.653881 3.152028 0.454465
C 5.668437 1.897092 3.144727
C 6.906601 5.653503 4.944053
C 6.912714 4.406962 5.852804
C 5.653881 3.152028 4.053477
C 5.668437 1.897092 6.743739
C 6.906601 5.653503 8.543065
C 6.912714 4.406962 9.451816
C 5.653881 3.152028 7.652490
C 5.668437 1.897092 10.342751
C 6.894251 8.171767 1.345041
C 6.900364 6.925227 2.253791
C 5.641531 5.670292 0.454465
C 5.656087 4.415356 3.144727
C 6.894251 8.171767 4.944053
C 6.900364 6.925227 5.852804
C 5.641531 5.670292 4.053477
C 5.656087 4.415356 6.743739
C 6.894251 8.171767 8.543065
C 6.900364 6.925227 9.451816
C 5.641531 5.670292 7.652490
C 5.656087 4.415356 10.342751
