108
A
C 2.846689 1.731735 -0.415074
C 2.453586 1.492597 1.159425
C 1.144713 0.696350 0.835940
C 0.622045 0.378427 2.505424
C 2.846689 1.731735 4.219698
C 2.453586 1.492597 5.794197
C 1.144713 0.696350 5.470712
C 0.622045 0.378427 7.140196
C 2.846689 1.731735 8.854470
C 2.453586 1.492597 10.428969
C 1.144713 0.696350 10.105484
C 0.622045 0.378427 11.774968
C 3.959404 3.881290 -3.654968
C 3.566300 3.642152 -2.080468
C 2.257427 2.845905 -2.403954
C 1.734760 2.527982 -0.734469
C 3.959404 3.881290 0.979804
C 3.566300 3.642152 2.554304
C 2.257427 2.845905 2.230818
C 1.734760 2.527982 3.900303
C 3.959404 3.881290 5.614576
C 3.566300 3.642152 7.189076
C 2.257427 2.845905 6.865590
C 1.734760 2.527982 8.535075
C 5.072119 6.030845 -6.894861
C 4.679015 5.791707 -5.320361
C 3.370142 4.995460 -5.643847
C 2.847475 4.677537 -3.974363
C 5.072119 6.030845 -2.260089
C 4.679015 5.791707 -0.685589
C 3.370142 4.995460 -1.009075
C 2.847475 4.677537 0.660409
C 5.072119 6.030845 2.374683
C 4.679015 5.791707 3.949183
C 3.370142 4.995460 3.625697
C 2.847475 4.677537 5.295181
C 5.267492 1.731735 0.232904
C 4.874388 1.492597 1.807404
C 3.565515 0.696350 1.483918
C 3.042848 0.378427 3.153403
C 5.267492 1.731735 4.867676
C 4.874388 1.492597 6.442176
C 3.565515 0.696350 6.118690
C 3.042848 0.378427 7.788175
C 5.267492 1.731735 9.502448
C 4.874388 1.492597 11.076948
C 3.565515 0.696350 10.753462
C 3.042848 0.378427 12.422947
C 6.380206 3.881290 -3.006989
C 5.987102 3.642152 -1.432489
C 4.678230 2.845905 -1.755975
C 4.155562 2.527982 -0.086491
C 6.380206 3.881290 1.627783
C 5.987102 3.642152 3.202283
C 4.678230 2.845905 2.878797
C 4.155562 2.527982 4.548281
C 6.380206 3.881290 6.262555
C 5.987102 3.642152 7.837055
C 4.678230 2.845905 7.513569
C 4.155562 2.527982 9.183053
C 7.492921 6.030845 -6.246882
C 7.099817 5.791707 -4.672383
C 5.790944 4.995460 -4.995868
C 5.268277 4.677537 -3.326384
C 7.492921 6.030845 -1.612110
C 7.099817 5.791707 -0.037611
C 5.790944 4.995460 -0.361096
C 5.268277 4.677537 1.308388
C 7.492921 6.030845 3.022662
C 7.099817 5.791707 4.597161
C 5.790944 4.995460 4.273676
C 5.268277 4.677537 5.943160
C 7.688294 1.731735 0.880883
C 7.295190 1.492597 2.455383
C 5.986317 0.696350 2.131897
C 5.463650 0.378427 3.801381
C 7.688294 1.731735 5.515655
C 7.295190 1.492597 7.090155
C 5.986317 0.696350 6.766669
C 5.463650 0.378427 8.436153
C 7.688294 1.731735 10.150427
C 7.295190 1.492597 11.724927
C 5.986317 0.696350 11.401441
C 5.463650 0.378427 13.070925
C 8.801008 3.881290 -2.359010
C 8.407904 3.642152 -0.784511
C 7.099032 2.845905 -1.107996
C 6.576364 2.527982 0.561488
C 8.801008 3.881290 2.275762
C 8.407904 3.642152 3.850261
C 7.099032 2.845905 3.526776
C 6.576364 2.527982 5.196260
C 8.801008 3.881290 6.910534
C 8.407904 3.642152 8.485033
C 7.099032 2.845905 8.161548
C 6.576364 2.527982 9.831032
C 9.913723 6.030845 -5.598904
C 9.520619 5.791707 -4.024404
C 8.211746 4.995460 -4.347890
C 7.689079 4.677537 -2.678405
C 9.913723 6.030845 -0.964132
C 9.520619 5.791707 0.610368
C 8.211746 4.995460 0.286882
C 7.689079 4.677537 1.956367
C 9.913723 6.030845 3.670640
C 9.520619 5.791707 5.245140
C 8.211746 4.995460 4.921654
C 7.689079 4.677537 6.591139
