108
A
C 2.821506 1.680053 0.526223
C 2.582815 1.537926 2.652137
C 1.302293 0.775376 1.190072
C 0.499147 0.297283 3.557668
C 2.821506 1.680053 6.032773
C 2.582815 1.537926 8.158686
C 1.302293 0.775376 6.696622
C 0.499147 0.297283 9.064218
C 2.821506 1.680053 11.539322
C 2.582815 1.537926 13.665236
C 1.302293 0.775376 12.203171
C 0.499147 0.297283 14.570767
C 3.983684 3.825372 -1.403152
C 3.744993 3.683245 0.722762
C 2.464471 2.920695 -0.739303
C 1.661326 2.442602 1.628293
C 3.983684 3.825372 4.103398
C 3.744993 3.683245 6.229312
C 2.464471 2.920695 4.767247
C 1.661326 2.442602 7.134843
C 3.983684 3.825372 9.609947
C 3.744993 3.683245 11.735861
C 2.464471 2.920695 10.273797
C 1.661326 2.442602 12.641393
C 5.145863 5.970691 -3.332526
C 4.907172 5.828564 -1.206613
C 3.626650 5.066014 -2.668677
C 2.823504 4.587921 -0.301081
C 5.145863 5.970691 2.174023
C 4.907172 5.828564 4.299937
C 3.626650 5.066014 2.837872
C 2.823504 4.587921 5.205468
C 5.145863 5.970691 7.680573
C 4.907172 5.828564 9.806487
C 3.626650 5.066014 8.344422
C 2.823504 4.587921 10.712018
C 5.262208 1.680053 0.912098
C 5.023518 1.537926 3.038012
C 3.742995 0.775376 1.575947
C 2.939850 0.297283 3.943543
C 5.262208 1.680053 6.418647
C 5.023518 1.537926 8.544561
C 3.742995 0.775376 7.082497
C 2.939850 0.297283 9.450093
C 5.262208 1.680053 11.925197
C 5.023518 1.537926 14.051111
C 3.742995 0.775376 12.589046
C 2.939850 0.297283 14.956642
C 6.424387 3.825372 -1.017277
C 6.185696 3.683245 1.108637
C 4.905174 2.920695 -0.353428
C 4.102028 2.442602 2.014168
C 6.424387 3.825372 4.489273
C 6.185696 3.683245 6.615187
C 4.905174 2.920695 5.153122
C 4.102028 2.442602 7.520718
C 6.424387 3.825372 9.995822
C 6.185696 3.683245 12.121736
C 4.905174 2.920695 10.659672
C 4.102028 2.442602 13.027267
C 7.586565 5.970691 -2.946652
C 7.347874 5.828564 -0.820738
C 6.067352 5.066014 -2.282802
C 5.264206 4.587921 0.084794
C 7.586565 5.970691 2.559898
C 7.347874 5.828564 4.685812
C 6.067352 5.066014 3.223747
C 5.264206 4.587921 5.591343
C 7.586565 5.970691 8.066448
C 7.347874 5.828564 10.192362
C 6.067352 5.066014 8.730297
C 5.264206 4.587921 11.097893
C 7.702911 1.680053 1.297973
C 7.464220 1.537926 3.423887
C 6.183698 0.775376 1.961822
C 5.380552 0.297283 4.329418
C 7.702911 1.680053 6.804522
C 7.464220 1.537926 8.930436
C 6.183698 0.775376 7.468372
C 5.380552 0.297283 9.835967
C 7.702911 1.680053 12.311072
C 7.464220 1.537926 14.436986
C 6.183698 0.775376 12.974921
C 5.380552 0.297283 15.342517
C 8.865089 3.825372 -0.631402
C 8.626398 3.683245 1.494512
C 7.345876 2.920695 0.032447
C 6.542730 2.442602 2.400043
C 8.865089 3.825372 4.875148
C 8.626398 3.683245 7.001062
C 7.345876 2.920695 5.538997
C 6.542730 2.442602 7.906593
C 8.865089 3.825372 10.381697
C 8.626398 3.683245 12.507611
C 7.345876 2.920695 11.045547
C 6.542730 2.442602 13.413142
C 10.027267 5.970691 -2.560777
C 9.788577 5.828564 -0.434863
C 8.508055 5.066014 -1.896927
C 7.704909 4.587921 0.470668
C 10.027267 5.970691 2.945773
C 9.788577 5.828564 5.071687
C 8.508055 5.066014 3.609622
C 7.704909 4.587921 5.977218
C 10.027267 5.970691 8.452323
C 9.788577 5.828564 10.578236
C 8.508055 5.066014 9.116172
C 7.704909 4.587921 11.483768
