108
A
C 2.842709 1.723108 -0.249358
C 2.474907 1.500165 1.399595
C 1.170615 0.709543 0.894846
C 0.601924 0.364881 2.680696
C 2.842709 1.723108 4.530711
C 2.474907 1.500165 6.179663
C 1.170615 0.709543 5.674914
C 0.601924 0.364881 7.460764
C 2.842709 1.723108 9.310779
C 2.474907 1.500165 10.959731
C 1.170615 0.709543 10.454982
C 0.601924 0.364881 12.240833
C 3.963667 3.871957 -3.270831
C 3.595866 3.649014 -1.621879
C 2.291574 2.858392 -2.126628
C 1.722882 2.513730 -0.340777
C 3.963667 3.871957 1.509237
C 3.595866 3.649014 3.158189
C 2.291574 2.858392 2.653440
C 1.722882 2.513730 4.439291
C 3.963667 3.871957 6.289305
C 3.595866 3.649014 7.938258
C 2.291574 2.858392 7.433509
C 1.722882 2.513730 9.219359
C 5.084626 6.020806 -6.292305
C 4.716824 5.797863 -4.643353
C 3.412532 5.007241 -5.148101
C 2.843841 4.662579 -3.362251
C 5.084626 6.020806 -1.512237
C 4.716824 5.797863 0.136716
C 3.412532 5.007241 -0.368033
C 2.843841 4.662579 1.417817
C 5.084626 6.020806 3.267832
C 4.716824 5.797863 4.916784
C 3.412532 5.007241 4.412035
C 2.843841 4.662579 6.197886
C 5.266828 1.723108 0.354937
C 4.899026 1.500165 2.003889
C 3.594734 0.709543 1.499140
C 3.026042 0.364881 3.284991
C 5.266828 1.723108 5.135005
C 4.899026 1.500165 6.783958
C 3.594734 0.709543 6.279209
C 3.026042 0.364881 8.065059
C 5.266828 1.723108 9.915074
C 4.899026 1.500165 11.564026
C 3.594734 0.709543 11.059277
C 3.026042 0.364881 12.845127
C 6.387786 3.871957 -2.666537
C 6.019985 3.649014 -1.017584
C 4.715693 2.858392 -1.522333
C 4.147001 2.513730 0.263517
C 6.387786 3.871957 2.113532
C 6.019985 3.649014 3.762484
C 4.715693 2.858392 3.257735
C 4.147001 2.513730 5.043586
C 6.387786 3.871957 6.893600
C 6.019985 3.649014 8.542552
C 4.715693 2.858392 8.037803
C 4.147001 2.513730 9.823654
C 7.508745 6.020806 -5.688010
C 7.140943 5.797863 -4.039058
C 5.836651 5.007241 -4.543807
C 5.267960 4.662579 -2.757956
C 7.508745 6.020806 -0.907942
C 7.140943 5.797863 0.741010
C 5.836651 5.007241 0.236262
C 5.267960 4.662579 2.022112
C 7.508745 6.020806 3.872126
C 7.140943 5.797863 5.521079
C 5.836651 5.007241 5.016330
C 5.267960 4.662579 6.802180
C 7.690947 1.723108 0.959232
C 7.323145 1.500165 2.608184
C 6.018853 0.709543 2.103435
C 5.450161 0.364881 3.889286
C 7.690947 1.723108 5.739300
C 7.323145 1.500165 7.388252
C 6.018853 0.709543 6.883503
C 5.450161 0.364881 8.669354
C 7.690947 1.723108 10.519368
C 7.323145 1.500165 12.168321
C 6.018853 0.709543 11.663572
C 5.450161 0.364881 13.449422
C 8.811905 3.871957 -2.062242
C 8.444103 3.649014 -0.413290
C 7.139811 2.858392 -0.918038
C 6.571120 2.513730 0.867812
C 8.811905 3.871957 2.717826
C 8.444103 3.649014 4.366779
C 7.139811 2.858392 3.862030
C 6.571120 2.513730 5.647880
C 8.811905 3.871957 7.497895
C 8.444103 3.649014 9.146847
C 7.139811 2.858392 8.642098
C 6.571120 2.513730 10.427949
C 9.932864 6.020806 -5.083715
C 9.565062 5.797863 -3.434763
C 8.260770 5.007241 -3.939512
C 7.692078 4.662579 -2.153662
C 9.932864 6.020806 -0.303647
C 9.565062 5.797863 1.345305
C 8.260770 5.007241 0.840556
C 7.692078 4.662579 2.626407
C 9.932864 6.020806 4.476421
C 9.565062 5.797863 6.125373
C 8.260770 5.007241 5.620625
C 7.692078 4.662579 7.406475
