108
A
C 1.368192 2.503219 1.569073
C 1.515096 1.779540 3.245356
C 0.311168 0.747438 0.842845
C 0.845799 -0.284757 3.990398
C 1.368192 2.503219 6.392909
C 1.515096 1.779540 8.069192
C 0.311168 0.747438 5.666681
C 0.845799 -0.284757 8.814233
C 1.368192 2.503219 11.216745
C 1.515096 1.779540 12.893028
C 0.311168 0.747438 10.490516
C 0.845799 -0.284757 13.638069
C 0.886542 4.875939 1.569073
C 1.033446 4.152260 3.245356
C -0.170482 3.120157 0.842845
C 0.364149 2.087963 3.990398
C 0.886542 4.875939 6.392909
C 1.033446 4.152260 8.069192
C -0.170482 3.120157 5.666681
C 0.364149 2.087963 8.814233
C 0.886542 4.875939 11.216745
C 1.033446 4.152260 12.893028
C -0.170482 3.120157 10.490516
C 0.364149 2.087963 13.638069
C 0.404892 7.248659 1.569073
C 0.551796 6.524979 3.245356
C -0.652132 5.492877 0.842845
C -0.117501 4.460682 3.990398
C 0.404892 7.248659 6.392909
C 0.551796 6.524979 8.069192
C -0.652132 5.492877 5.666681
C -0.117501 4.460682 8.814233
C 0.404892 7.248659 11.216745
C 0.551796 6.524979 12.893028
C -0.652132 5.492877 10.490516
C -0.117501 4.460682 13.638069
C 3.869970 2.503219 1.569073
C 4.016873 1.779540 3.245356
C 2.812945 0.747438 0.842845
C 3.347577 -0.284757 3.990398
C 3.869970 2.503219 6.392909
C 4.016873 1.779540 8.069192
C 2.812945 0.747438 5.666681
C 3.347577 -0.284757 8.814233
C 3.869970 2.503219 11.216745
C 4.016873 1.779540 12.893028
C 2.812945 0.747438 10.490516
C 3.347577 -0.284757 13.638069
C 3.388320 4.875939 1.569073
C 3.535223 4.152260 3.245356
C 2.331295 3.120157 0.842845
C 2.865927 2.087963 3.990398
C 3.388320 4.875939 6.392909
C 3.535223 4.152260 8.069192
C 2.331295 3.120157 5.666681
C 2.865927 2.087963 8.814233
C 3.388320 4.875939 11.216745
C 3.535223 4.152260 12.893028
C 2.331295 3.120157 10.490516
C 2.865927 2.087963 13.638069
C 2.906670 7.248659 1.569073
C 3.053573 6.524979 3.245356
C 1.849645 5.492877 0.842845
C 2.384277 4.460682 3.990398
C 2.906670 7.248659 6.392909
C 3.053573 6.524979 8.069192
C 1.849645 5.492877 5.666681
C 2.384277 4.460682 8.814233
C 2.906670 7.248659 11.216745
C 3.053573 6.524979 12.893028
C 1.849645 5.492877 10.490516
C 2.384277 4.460682 13.638069
C 6.371747 2.503219 1.569073
C 6.518651 1.779540 3.245356
C 5.314723 0.747438 0.842845
C 5.849354 -0.284757 3.990398
C 6.371747 2.503219 6.392909
C 6.518651 1.779540 8.069192
C 5.314723 0.747438 5.666681
C 5.849354 -0.284757 8.814233
C 6.371747 2.503219 11.216745
C 6.518651 1.779540 12.893028
C 5.314723 0.747438 10.490516
C 5.849354 -0.284757 13.638069
C 5.890097 4.875939 1.569073
C 6.037001 4.152260 3.245356
C 4.833073 3.120157 0.842845
C 5.367704 2.087963 3.990398
C 5.890097 4.875939 6.392909
C 6.037001 4.152260 8.069192
C 4.833073 3.120157 5.666681
C 5.367704 2.087963 8.814233
C 5.890097 4.875939 11.216745
C 6.037001 4.152260 12.893028
C 4.833073 3.120157 10.490516
C 5.367704 2.087963 13.638069
C 5.408447 7.248659 1.569073
C 5.555351 6.524979 3.245356
C 4.351423 5.492877 0.842845
C 4.886054 4.460682 3.990398
C 5.408447 7.248659 6.392909
C 5.555351 6.524979 8.069192
C 4.351423 5.492877 5.666681
C 4.886054 4.460682 8.814233
C 5.408447 7.248659 11.216745
C 5.555351 6.524979 12.893028
C 4.351423 5.492877 10.490516
C 4.886054 4.460682 13.638069
