108
A
C 2.801377 1.642845 1.126936
C 2.678089 1.570544 3.807367
C 1.419335 0.832253 1.446874
C 0.407153 0.238877 4.318534
C 2.801377 1.642845 7.263103
C 2.678089 1.570544 9.943533
C 1.419335 0.832253 7.583041
C 0.407153 0.238877 10.454701
C 2.801377 1.642845 13.399270
C 2.678089 1.570544 16.079700
C 1.419335 0.832253 13.719207
C 0.407153 0.238877 16.590868
C 3.999279 3.785105 0.144047
C 3.875991 3.712804 2.824478
C 2.617237 2.974513 0.463985
C 1.605055 2.381137 3.335645
C 3.999279 3.785105 6.280214
C 3.875991 3.712804 8.960644
C 2.617237 2.974513 6.600152
C 1.605055 2.381137 9.471812
C 3.999279 3.785105 12.416381
C 3.875991 3.712804 15.096811
C 2.617237 2.974513 12.736318
C 1.605055 2.381137 15.607979
C 5.197181 5.927365 -0.838842
C 5.073893 5.855064 1.841589
C 3.815140 5.116772 -0.518904
C 2.802958 4.523396 2.352756
C 5.197181 5.927365 5.297325
C 5.073893 5.855064 7.977755
C 3.815140 5.116772 5.617263
C 2.802958 4.523396 8.488923
C 5.197181 5.927365 11.433492
C 5.073893 5.855064 14.113922
C 3.815140 5.116772 11.753429
C 2.802958 4.523396 14.625090
C 5.256452 1.642845 1.323514
C 5.133164 1.570544 4.003944
C 3.874410 0.832253 1.643452
C 2.862228 0.238877 4.515112
C 5.256452 1.642845 7.459681
C 5.133164 1.570544 10.140111
C 3.874410 0.832253 7.779618
C 2.862228 0.238877 10.651279
C 5.256452 1.642845 13.595848
C 5.133164 1.570544 16.276278
C 3.874410 0.832253 13.915785
C 2.862228 0.238877 16.787446
C 6.454354 3.785105 0.340625
C 6.331066 3.712804 3.021055
C 5.072312 2.974513 0.660563
C 4.060130 2.381137 3.532223
C 6.454354 3.785105 6.476792
C 6.331066 3.712804 9.157222
C 5.072312 2.974513 6.796729
C 4.060130 2.381137 9.668390
C 6.454354 3.785105 12.612959
C 6.331066 3.712804 15.293389
C 5.072312 2.974513 12.932896
C 4.060130 2.381137 15.804557
C 7.652256 5.927365 -0.642264
C 7.528968 5.855064 2.038166
C 6.270214 5.116772 -0.322326
C 5.258032 4.523396 2.549334
C 7.652256 5.927365 5.493903
C 7.528968 5.855064 8.174333
C 6.270214 5.116772 5.813840
C 5.258032 4.523396 8.685501
C 7.652256 5.927365 11.630070
C 7.528968 5.855064 14.310500
C 6.270214 5.116772 11.950007
C 5.258032 4.523396 14.821668
C 7.711526 1.642845 1.520092
C 7.588238 1.570544 4.200522
C 6.329485 0.832253 1.840029
C 5.317303 0.238877 4.711690
C 7.711526 1.642845 7.656259
C 7.588238 1.570544 10.336689
C 6.329485 0.832253 7.976196
C 5.317303 0.238877 10.847857
C 7.711526 1.642845 13.792426
C 7.588238 1.570544 16.472856
C 6.329485 0.832253 14.112363
C 5.317303 0.238877 16.984024
C 8.909428 3.785105 0.537203
C 8.786141 3.712804 3.217633
C 7.527387 2.974513 0.857140
C 6.515205 2.381137 3.728801
C 8.909428 3.785105 6.673370
C 8.786141 3.712804 9.353800
C 7.527387 2.974513 6.993307
C 6.515205 2.381137 9.864968
C 8.909428 3.785105 12.809537
C 8.786141 3.712804 15.489967
C 7.527387 2.974513 13.129474
C 6.515205 2.381137 16.001135
C 10.107331 5.927365 -0.445686
C 9.984043 5.855064 2.234744
C 8.725289 5.116772 -0.125749
C 7.713107 4.523396 2.745912
C 10.107331 5.927365 5.690481
C 9.984043 5.855064 8.370911
C 8.725289 5.116772 6.010418
C 7.713107 4.523396 8.882079
C 10.107331 5.927365 11.826648
C 9.984043 5.855064 14.507078
C 8.725289 5.116772 12.146585
C 7.713107 4.523396 15.018246
