108
A
C 1.026524 1.897685 1.676677
C 1.128967 1.664636 4.412300
C -0.078690 0.847173 1.379885
C 0.933778 0.029535 4.757386
C 1.026524 1.897685 7.789801
C 1.128967 1.664636 10.525424
C -0.078690 0.847173 7.493009
C 0.933778 0.029535 10.870510
C 1.026524 1.897685 13.902925
C 1.128967 1.664636 16.638548
C -0.078690 0.847173 13.606132
C 0.933778 0.029535 16.983633
C 0.050874 4.117201 1.676677
C 0.153317 3.884152 4.412300
C -1.054340 3.066689 1.379885
C -0.041872 2.249050 4.757386
C 0.050874 4.117201 7.789801
C 0.153317 3.884152 10.525424
C -1.054340 3.066689 7.493009
C -0.041872 2.249050 10.870510
C 0.050874 4.117201 13.902925
C 0.153317 3.884152 16.638548
C -1.054340 3.066689 13.606132
C -0.041872 2.249050 16.983633
C -0.924776 6.336716 1.676677
C -0.822333 6.103667 4.412300
C -2.029990 5.286204 1.379885
C -1.017522 4.468565 4.757386
C -0.924776 6.336716 7.789801
C -0.822333 6.103667 10.525424
C -2.029990 5.286204 7.493009
C -1.017522 4.468565 10.870510
C -0.924776 6.336716 13.902925
C -0.822333 6.103667 16.638548
C -2.029990 5.286204 13.606132
C -1.017522 4.468565 16.983633
C 3.507464 1.897685 1.676677
C 3.609907 1.664636 4.412300
C 2.402250 0.847173 1.379885
C 3.414718 0.029535 4.757386
C 3.507464 1.897685 7.789801
C 3.609907 1.664636 10.525424
C 2.402250 0.847173 7.493009
C 3.414718 0.029535 10.870510
C 3.507464 1.897685 13.902925
C 3.609907 1.664636 16.638548
C 2.402250 0.847173 13.606132
C 3.414718 0.029535 16.983633
C 2.531814 4.117201 1.676677
C 2.634257 3.884152 4.412300
C 1.426600 3.066689 1.379885
C 2.439068 2.249050 4.757386
C 2.531814 4.117201 7.789801
C 2.634257 3.884152 10.525424
C 1.426600 3.066689 7.493009
C 2.439068 2.249050 10.870510
C 2.531814 4.117201 13.902925
C 2.634257 3.884152 16.638548
C 1.426600 3.066689 13.606132
C 2.439068 2.249050 16.983633
C 1.556164 6.336716 1.676677
C 1.658607 6.103667 4.412300
C 0.450950 5.286204 1.379885
C 1.463418 4.468565 4.757386
C 1.556164 6.336716 7.789801
C 1.658607 6.103667 10.525424
C 0.450950 5.286204 7.493009
C 1.463418 4.468565 10.870510
C 1.556164 6.336716 13.902925
C 1.658607 6.103667 16.638548
C 0.450950 5.286204 13.606132
C 1.463418 4.468565 16.983633
C 5.988404 1.897685 1.676677
C 6.090847 1.664636 4.412300
C 4.883189 0.847173 1.379885
C 5.895658 0.029535 4.757386
C 5.988404 1.897685 7.789801
C 6.090847 1.664636 10.525424
C 4.883189 0.847173 7.493009
C 5.895658 0.029535 10.870510
C 5.988404 1.897685 13.902925
C 6.090847 1.664636 16.638548
C 4.883189 0.847173 13.606132
C 5.895658 0.029535 16.983633
C 5.012754 4.117201 1.676677
C 5.115197 3.884152 4.412300
C 3.907539 3.066689 1.379885
C 4.920008 2.249050 4.757386
C 5.012754 4.117201 7.789801
C 5.115197 3.884152 10.525424
C 3.907539 3.066689 7.493009
C 4.920008 2.249050 10.870510
C 5.012754 4.117201 13.902925
C 5.115197 3.884152 16.638548
C 3.907539 3.066689 13.606132
C 4.920008 2.249050 16.983633
C 4.037104 6.336716 1.676677
C 4.139547 6.103667 4.412300
C 2.931889 5.286204 1.379885
C 3.944358 4.468565 4.757386
C 4.037104 6.336716 7.789801
C 4.139547 6.103667 10.525424
C 2.931889 5.286204 7.493009
C 3.944358 4.468565 10.870510
C 4.037104 6.336716 13.902925
C 4.139547 6.103667 16.638548
C 2.931889 5.286204 13.606132
C 3.944358 4.468565 16.983633
