108
A
C 1.357242 2.487334 1.573366
C 1.505442 1.776667 3.272990
C 0.302190 0.750180 0.854668
C 0.849638 -0.276402 4.011112
C 1.357242 2.487334 6.429434
C 1.505442 1.776667 8.129058
C 0.302190 0.750180 5.710736
C 0.849638 -0.276402 8.867180
C 1.357242 2.487334 11.285502
C 1.505442 1.776667 12.985126
C 0.302190 0.750180 10.566804
C 0.849638 -0.276402 13.723248
C 0.863242 4.856224 1.573366
C 1.011442 4.145557 3.272990
C -0.191810 3.119070 0.854668
C 0.355638 2.092488 4.011112
C 0.863242 4.856224 6.429434
C 1.011442 4.145557 8.129058
C -0.191810 3.119070 5.710736
C 0.355638 2.092488 8.867180
C 0.863242 4.856224 11.285502
C 1.011442 4.145557 12.985126
C -0.191810 3.119070 10.566804
C 0.355638 2.092488 13.723248
C 0.369242 7.225114 1.573366
C 0.517442 6.514447 3.272990
C -0.685810 5.487959 0.854668
C -0.138362 4.461377 4.011112
C 0.369242 7.225114 6.429434
C 0.517442 6.514447 8.129058
C -0.685810 5.487959 5.710736
C -0.138362 4.461377 8.867180
C 0.369242 7.225114 11.285502
C 0.517442 6.514447 12.985126
C -0.685810 5.487959 10.566804
C -0.138362 4.461377 13.723248
C 3.858499 2.487334 1.573366
C 4.006699 1.776667 3.272990
C 2.803447 0.750180 0.854668
C 3.350894 -0.276402 4.011112
C 3.858499 2.487334 6.429434
C 4.006699 1.776667 8.129058
C 2.803447 0.750180 5.710736
C 3.350894 -0.276402 8.867180
C 3.858499 2.487334 11.285502
C 4.006699 1.776667 12.985126
C 2.803447 0.750180 10.566804
C 3.350894 -0.276402 13.723248
C 3.364499 4.856224 1.573366
C 3.512699 4.145557 3.272990
C 2.309447 3.119070 0.854668
C 2.856894 2.092488 4.011112
C 3.364499 4.856224 6.429434
C 3.512699 4.145557 8.129058
C 2.309447 3.119070 5.710736
C 2.856894 2.092488 8.867180
C 3.364499 4.856224 11.285502
C 3.512699 4.145557 12.985126
C 2.309447 3.119070 10.566804
C 2.856894 2.092488 13.723248
C 2.870499 7.225114 1.573366
C 3.018699 6.514447 3.272990
C 1.815447 5.487959 0.854668
C 2.362894 4.461377 4.011112
C 2.870499 7.225114 6.429434
C 3.018699 6.514447 8.129058
C 1.815447 5.487959 5.710736
C 2.362894 4.461377 8.867180
C 2.870499 7.225114 11.285502
C 3.018699 6.514447 12.985126
C 1.815447 5.487959 10.566804
C 2.362894 4.461377 13.723248
C 6.359756 2.487334 1.573366
C 6.507956 1.776667 3.272990
C 5.304704 0.750180 0.854668
C 5.852151 -0.276402 4.011112
C 6.359756 2.487334 6.429434
C 6.507956 1.776667 8.129058
C 5.304704 0.750180 5.710736
C 5.852151 -0.276402 8.867180
C 6.359756 2.487334 11.285502
C 6.507956 1.776667 12.985126
C 5.304704 0.750180 10.566804
C 5.852151 -0.276402 13.723248
C 5.865756 4.856224 1.573366
C 6.013956 4.145557 3.272990
C 4.810704 3.119070 0.854668
C 5.358151 2.092488 4.011112
C 5.865756 4.856224 6.429434
C 6.013956 4.145557 8.129058
C 4.810704 3.119070 5.710736
C 5.358151 2.092488 8.867180
C 5.865756 4.856224 11.285502
C 6.013956 4.145557 12.985126
C 4.810704 3.119070 10.566804
C 5.358151 2.092488 13.723248
C 5.371756 7.225114 1.573366
C 5.519956 6.514447 3.272990
C 4.316704 5.487959 0.854668
C 4.864151 4.461377 4.011112
C 5.371756 7.225114 6.429434
C 5.519956 6.514447 8.129058
C 4.316704 5.487959 5.710736
C 4.864151 4.461377 8.867180
C 5.371756 7.225114 11.285502
C 5.519956 6.514447 12.985126
C 4.316704 5.487959 10.566804
C 4.864151 4.461377 13.723248
