108
A
C 1.139479 2.132545 1.649416
C 1.283419 1.710598 3.930360
C 0.084825 0.809731 1.149288
C 0.914726 -0.091280 4.465753
C 1.139479 2.132545 7.246825
C 1.283419 1.710598 9.527769
C 0.084825 0.809731 6.746697
C 0.914726 -0.091280 10.063161
C 1.139479 2.132545 12.844234
C 1.283419 1.710598 15.125178
C 0.084825 0.809731 12.344105
C 0.914726 -0.091280 15.660570
C 0.361429 4.413342 1.649416
C 0.505369 3.991395 3.930360
C -0.693225 3.090528 1.149288
C 0.136676 2.189517 4.465753
C 0.361429 4.413342 7.246825
C 0.505369 3.991395 9.527769
C -0.693225 3.090528 6.746697
C 0.136676 2.189517 10.063161
C 0.361429 4.413342 12.844234
C 0.505369 3.991395 15.125178
C -0.693225 3.090528 12.344105
C 0.136676 2.189517 15.660570
C -0.416621 6.694139 1.649416
C -0.272681 6.272192 3.930360
C -1.471275 5.371325 1.149288
C -0.641374 4.470314 4.465753
C -0.416621 6.694139 7.246825
C -0.272681 6.272192 9.527769
C -1.471275 5.371325 6.746697
C -0.641374 4.470314 10.063161
C -0.416621 6.694139 12.844234
C -0.272681 6.272192 15.125178
C -1.471275 5.371325 12.344105
C -0.641374 4.470314 15.660570
C 3.628754 2.132545 1.649416
C 3.772694 1.710598 3.930360
C 2.574100 0.809731 1.149288
C 3.404001 -0.091280 4.465753
C 3.628754 2.132545 7.246825
C 3.772694 1.710598 9.527769
C 2.574100 0.809731 6.746697
C 3.404001 -0.091280 10.063161
C 3.628754 2.132545 12.844234
C 3.772694 1.710598 15.125178
C 2.574100 0.809731 12.344105
C 3.404001 -0.091280 15.660570
C 2.850704 4.413342 1.649416
C 2.994644 3.991395 3.930360
C 1.796050 3.090528 1.149288
C 2.625951 2.189517 4.465753
C 2.850704 4.413342 7.246825
C 2.994644 3.991395 9.527769
C 1.796050 3.090528 6.746697
C 2.625951 2.189517 10.063161
C 2.850704 4.413342 12.844234
C 2.994644 3.991395 15.125178
C 1.796050 3.090528 12.344105
C 2.625951 2.189517 15.660570
C 2.072654 6.694139 1.649416
C 2.216594 6.272192 3.930360
C 1.018000 5.371325 1.149288
C 1.847901 4.470314 4.465753
C 2.072654 6.694139 7.246825
C 2.216594 6.272192 9.527769
C 1.018000 5.371325 6.746697
C 1.847901 4.470314 10.063161
C 2.072654 6.694139 12.844234
C 2.216594 6.272192 15.125178
C 1.018000 5.371325 12.344105
C 1.847901 4.470314 15.660570
C 6.118029 2.132545 1.649416
C 6.261968 1.710598 3.930360
C 5.063375 0.809731 1.149288
C 5.893276 -0.091280 4.465753
C 6.118029 2.132545 7.246825
C 6.261968 1.710598 9.527769
C 5.063375 0.809731 6.746697
C 5.893276 -0.091280 10.063161
C 6.118029 2.132545 12.844234
C 6.261968 1.710598 15.125178
C 5.063375 0.809731 12.344105
C 5.893276 -0.091280 15.660570
C 5.339979 4.413342 1.649416
C 5.483918 3.991395 3.930360
C 4.285325 3.090528 1.149288
C 5.115226 2.189517 4.465753
C 5.339979 4.413342 7.246825
C 5.483918 3.991395 9.527769
C 4.285325 3.090528 6.746697
C 5.115226 2.189517 10.063161
C 5.339979 4.413342 12.844234
C 5.483918 3.991395 15.125178
C 4.285325 3.090528 12.344105
C 5.115226 2.189517 15.660570
C 4.561929 6.694139 1.649416
C 4.705868 6.272192 3.930360
C 3.507275 5.371325 1.149288
C 4.337176 4.470314 4.465753
C 4.561929 6.694139 7.246825
C 4.705868 6.272192 9.527769
C 3.507275 5.371325 6.746697
C 4.337176 4.470314 10.063161
C 4.561929 6.694139 12.844234
C 4.705868 6.272192 15.125178
C 3.507275 5.371325 12.344105
C 4.337176 4.470314 15.660570
