108
A
C 1.079050 2.013890 1.665677
C 1.206193 1.687617 4.168803
C 0.004330 0.828861 1.261956
C 0.926942 -0.030055 4.614096
C 1.079050 2.013890 7.520943
C 1.206193 1.687617 10.024069
C 0.004330 0.828861 7.117222
C 0.926942 -0.030055 10.469362
C 1.079050 2.013890 13.376209
C 1.206193 1.687617 15.879336
C 0.004330 0.828861 12.972489
C 0.926942 -0.030055 16.324629
C 0.202200 4.264046 1.665677
C 0.329343 3.937773 4.168803
C -0.872520 3.079017 1.261956
C 0.050092 2.220101 4.614096
C 0.202200 4.264046 7.520943
C 0.329343 3.937773 10.024069
C -0.872520 3.079017 7.117222
C 0.050092 2.220101 10.469362
C 0.202200 4.264046 13.376209
C 0.329343 3.937773 15.879336
C -0.872520 3.079017 12.972489
C 0.050092 2.220101 16.324629
C -0.674650 6.514202 1.665677
C -0.547507 6.187929 4.168803
C -1.749370 5.329173 1.261956
C -0.826758 4.470257 4.614096
C -0.674650 6.514202 7.520943
C -0.547507 6.187929 10.024069
C -1.749370 5.329173 7.117222
C -0.826758 4.470257 10.469362
C -0.674650 6.514202 13.376209
C -0.547507 6.187929 15.879336
C -1.749370 5.329173 12.972489
C -0.826758 4.470257 16.324629
C 3.564157 2.013890 1.665677
C 3.691300 1.687617 4.168803
C 2.489437 0.828861 1.261956
C 3.412050 -0.030055 4.614096
C 3.564157 2.013890 7.520943
C 3.691300 1.687617 10.024069
C 2.489437 0.828861 7.117222
C 3.412050 -0.030055 10.469362
C 3.564157 2.013890 13.376209
C 3.691300 1.687617 15.879336
C 2.489437 0.828861 12.972489
C 3.412050 -0.030055 16.324629
C 2.687307 4.264046 1.665677
C 2.814450 3.937773 4.168803
C 1.612587 3.079017 1.261956
C 2.535200 2.220101 4.614096
C 2.687307 4.264046 7.520943
C 2.814450 3.937773 10.024069
C 1.612587 3.079017 7.117222
C 2.535200 2.220101 10.469362
C 2.687307 4.264046 13.376209
C 2.814450 3.937773 15.879336
C 1.612587 3.079017 12.972489
C 2.535200 2.220101 16.324629
C 1.810457 6.514202 1.665677
C 1.937600 6.187929 4.168803
C 0.735737 5.329173 1.261956
C 1.658350 4.470257 4.614096
C 1.810457 6.514202 7.520943
C 1.937600 6.187929 10.024069
C 0.735737 5.329173 7.117222
C 1.658350 4.470257 10.469362
C 1.810457 6.514202 13.376209
C 1.937600 6.187929 15.879336
C 0.735737 5.329173 12.972489
C 1.658350 4.470257 16.324629
C 6.049264 2.013890 1.665677
C 6.176408 1.687617 4.168803
C 4.974544 0.828861 1.261956
C 5.897157 -0.030055 4.614096
C 6.049264 2.013890 7.520943
C 6.176408 1.687617 10.024069
C 4.974544 0.828861 7.117222
C 5.897157 -0.030055 10.469362
C 6.049264 2.013890 13.376209
C 6.176408 1.687617 15.879336
C 4.974544 0.828861 12.972489
C 5.897157 -0.030055 16.324629
C 5.172414 4.264046 1.665677
C 5.299558 3.937773 4.168803
C 4.097694 3.079017 1.261956
C 5.020307 2.220101 4.614096
C 5.172414 4.264046 7.520943
C 5.299558 3.937773 10.024069
C 4.097694 3.079017 7.117222
C 5.020307 2.220101 10.469362
C 5.172414 4.264046 13.376209
C 5.299558 3.937773 15.879336
C 4.097694 3.079017 12.972489
C 5.020307 2.220101 16.324629
C 4.295564 6.514202 1.665677
C 4.422708 6.187929 4.168803
C 3.220844 5.329173 1.261956
C 4.143457 4.470257 4.614096
C 4.295564 6.514202 7.520943
C 4.422708 6.187929 10.024069
C 3.220844 5.329173 7.117222
C 4.143457 4.470257 10.469362
C 4.295564 6.514202 13.376209
C 4.422708 6.187929 15.879336
C 3.220844 5.329173 12.972489
C 4.143457 4.470257 16.324629
