108
A
C 2.833084 1.702999 0.123573
C 2.524994 1.517803 1.973392
C 1.231615 0.740293 1.032474
C 0.554411 0.333308 3.089823
C 2.833084 1.702999 5.242666
C 2.524994 1.517803 7.092485
C 1.231615 0.740293 6.151567
C 0.554411 0.333308 8.208916
C 2.833084 1.702999 10.361759
C 2.524994 1.517803 12.211578
C 1.231615 0.740293 11.270659
C 0.554411 0.333308 13.328009
C 3.973278 3.850201 -2.388254
C 3.665189 3.665005 -0.538435
C 2.371810 2.887495 -1.479354
C 1.694605 2.480510 0.577995
C 3.973278 3.850201 2.730839
C 3.665189 3.665005 4.580658
C 2.371810 2.887495 3.639739
C 1.694605 2.480510 5.697088
C 3.973278 3.850201 7.849932
C 3.665189 3.665005 9.699751
C 2.371810 2.887495 8.758832
C 1.694605 2.480510 10.816181
C 5.113473 5.997403 -4.900082
C 4.805383 5.812206 -3.050263
C 3.512004 5.034696 -3.991181
C 2.834800 4.627711 -1.933832
C 5.113473 5.997403 0.219011
C 4.805383 5.812206 2.068830
C 3.512004 5.034696 1.127912
C 2.834800 4.627711 3.185261
C 5.113473 5.997403 5.338104
C 4.805383 5.812206 7.187923
C 3.512004 5.034696 6.247005
C 2.834800 4.627711 8.304354
C 5.264942 1.702999 0.625939
C 4.956852 1.517803 2.475758
C 3.663473 0.740293 1.534839
C 2.986269 0.333308 3.592188
C 5.264942 1.702999 5.745032
C 4.956852 1.517803 7.594851
C 3.663473 0.740293 6.653932
C 2.986269 0.333308 8.711281
C 5.264942 1.702999 10.864124
C 4.956852 1.517803 12.713944
C 3.663473 0.740293 11.773025
C 2.986269 0.333308 13.830374
C 6.405136 3.850201 -1.885889
C 6.097047 3.665005 -0.036070
C 4.803668 2.887495 -0.976988
C 4.126463 2.480510 1.080361
C 6.405136 3.850201 3.233204
C 6.097047 3.665005 5.083023
C 4.803668 2.887495 4.142105
C 4.126463 2.480510 6.199454
C 6.405136 3.850201 8.352297
C 6.097047 3.665005 10.202116
C 4.803668 2.887495 9.261198
C 4.126463 2.480510 11.318547
C 7.545331 5.997403 -4.397716
C 7.237241 5.812206 -2.547897
C 5.943862 5.034696 -3.488816
C 5.266657 4.627711 -1.431466
C 7.545331 5.997403 0.721377
C 7.237241 5.812206 2.571196
C 5.943862 5.034696 1.630277
C 5.266657 4.627711 3.687626
C 7.545331 5.997403 5.840470
C 7.237241 5.812206 7.690289
C 5.943862 5.034696 6.749370
C 5.266657 4.627711 8.806719
C 7.696800 1.702999 1.128304
C 7.388710 1.517803 2.978123
C 6.095331 0.740293 2.037205
C 5.418126 0.333308 4.094554
C 7.696800 1.702999 6.247397
C 7.388710 1.517803 8.097216
C 6.095331 0.740293 7.156298
C 5.418126 0.333308 9.213647
C 7.696800 1.702999 11.366490
C 7.388710 1.517803 13.216309
C 6.095331 0.740293 12.275390
C 5.418126 0.333308 14.332740
C 8.836994 3.850201 -1.383523
C 8.528905 3.665005 0.466296
C 7.235526 2.887495 -0.474623
C 6.558321 2.480510 1.582726
C 8.836994 3.850201 3.735570
C 8.528905 3.665005 5.585389
C 7.235526 2.887495 4.644470
C 6.558321 2.480510 6.701819
C 8.836994 3.850201 8.854663
C 8.528905 3.665005 10.704482
C 7.235526 2.887495 9.763563
C 6.558321 2.480510 11.820912
C 9.977189 5.997403 -3.895351
C 9.669099 5.812206 -2.045532
C 8.375720 5.034696 -2.986450
C 7.698515 4.627711 -0.929101
C 9.977189 5.997403 1.223742
C 9.669099 5.812206 3.073561
C 8.375720 5.034696 2.132643
C 7.698515 4.627711 4.189992
C 9.977189 5.997403 6.342835
C 9.669099 5.812206 8.192654
C 8.375720 5.034696 7.251736
C 7.698515 4.627711 9.309085
