108
A
C 2.825920 1.688653 0.378174
C 2.561060 1.530384 2.394736
C 1.275669 0.762227 1.130934
C 0.519991 0.310785 3.382192
C 2.825920 1.688653 5.739427
C 2.561060 1.530384 7.755989
C 1.275669 0.762227 6.492187
C 0.519991 0.310785 8.743445
C 2.825920 1.688653 11.100681
C 2.561060 1.530384 13.117242
C 1.275669 0.762227 11.853441
C 0.519991 0.310785 14.104699
C 3.979854 3.834678 -1.769621
C 3.714995 3.676409 0.246941
C 2.429603 2.908252 -1.016860
C 1.673926 2.456810 1.234398
C 3.979854 3.834678 3.591633
C 3.714995 3.676409 5.608194
C 2.429603 2.908252 4.344393
C 1.673926 2.456810 6.595651
C 3.979854 3.834678 8.952886
C 3.714995 3.676409 10.969448
C 2.429603 2.908252 9.705646
C 1.673926 2.456810 11.956904
C 5.133789 5.980703 -3.917415
C 4.868929 5.822434 -1.900853
C 3.583537 5.054277 -3.164655
C 2.827860 4.602835 -0.913397
C 5.133789 5.980703 1.443838
C 4.868929 5.822434 3.460400
C 3.583537 5.054277 2.196598
C 2.827860 4.602835 4.447857
C 5.133789 5.980703 6.805092
C 4.868929 5.822434 8.821653
C 3.583537 5.054277 7.557852
C 2.827860 4.602835 9.809110
C 5.263306 1.688653 0.807733
C 4.998446 1.530384 2.824294
C 3.713054 0.762227 1.560493
C 2.957377 0.310785 3.811751
C 5.263306 1.688653 6.168986
C 4.998446 1.530384 8.185548
C 3.713054 0.762227 6.921746
C 2.957377 0.310785 9.173004
C 5.263306 1.688653 11.530239
C 4.998446 1.530384 13.546801
C 3.713054 0.762227 12.283000
C 2.957377 0.310785 14.534258
C 6.417240 3.834678 -1.340062
C 6.152380 3.676409 0.676500
C 4.866989 2.908252 -0.587302
C 4.111312 2.456810 1.663957
C 6.417240 3.834678 4.021192
C 6.152380 3.676409 6.037753
C 4.866989 2.908252 4.773952
C 4.111312 2.456810 7.025210
C 6.417240 3.834678 9.382445
C 6.152380 3.676409 11.399007
C 4.866989 2.908252 10.135205
C 4.111312 2.456810 12.386463
C 7.571174 5.980703 -3.487856
C 7.306315 5.822434 -1.471294
C 6.020923 5.054277 -2.735096
C 5.265246 4.602835 -0.483838
C 7.571174 5.980703 1.873397
C 7.306315 5.822434 3.889959
C 6.020923 5.054277 2.626157
C 5.265246 4.602835 4.877415
C 7.571174 5.980703 7.234651
C 7.306315 5.822434 9.251212
C 6.020923 5.054277 7.987411
C 5.265246 4.602835 10.238669
C 7.700691 1.688653 1.237292
C 7.435831 1.530384 3.253853
C 6.150440 0.762227 1.990052
C 5.394763 0.310785 4.241310
C 7.700691 1.688653 6.598545
C 7.435831 1.530384 8.615107
C 6.150440 0.762227 7.351305
C 5.394763 0.310785 9.602563
C 7.700691 1.688653 11.959798
C 7.435831 1.530384 13.976360
C 6.150440 0.762227 12.712559
C 5.394763 0.310785 14.963817
C 8.854626 3.834678 -0.910503
C 8.589766 3.676409 1.106059
C 7.304374 2.908252 -0.157743
C 6.548697 2.456810 2.093515
C 8.854626 3.834678 4.450751
C 8.589766 3.676409 6.467312
C 7.304374 2.908252 5.203511
C 6.548697 2.456810 7.454769
C 8.854626 3.834678 9.812004
C 8.589766 3.676409 11.828566
C 7.304374 2.908252 10.564764
C 6.548697 2.456810 12.816022
C 10.008560 5.980703 -3.058297
C 9.743700 5.822434 -1.041736
C 8.458309 5.054277 -2.305537
C 7.702632 4.602835 -0.054279
C 10.008560 5.980703 2.302956
C 9.743700 5.822434 4.319518
C 8.458309 5.054277 3.055716
C 7.702632 4.602835 5.306974
C 10.008560 5.980703 7.664209
C 9.743700 5.822434 9.680771
C 8.458309 5.054277 8.416970
C 7.702632 4.602835 10.668228
