108
A
C 0.962556 1.727975 1.683314
C 1.013129 1.630165 4.787021
C -0.207953 0.873110 1.566641
C 0.933945 0.115857 4.962844
C 0.962556 1.727975 8.183224
C 1.013129 1.630165 11.286932
C -0.207953 0.873110 8.066551
C 0.933945 0.115857 11.462754
C 0.962556 1.727975 14.683135
C 1.013129 1.630165 17.786842
C -0.207953 0.873110 14.566461
C 0.933945 0.115857 17.962664
C -0.161294 3.901529 1.683314
C -0.110721 3.803719 4.787021
C -1.331803 3.046664 1.566641
C -0.189905 2.289411 4.962844
C -0.161294 3.901529 8.183224
C -0.110721 3.803719 11.286932
C -1.331803 3.046664 8.066551
C -0.189905 2.289411 11.462754
C -0.161294 3.901529 14.683135
C -0.110721 3.803719 17.786842
C -1.331803 3.046664 14.566461
C -0.189905 2.289411 17.962664
C -1.285144 6.075083 1.683314
C -1.234571 5.977273 4.787021
C -2.455653 5.220218 1.566641
C -1.313755 4.462965 4.962844
C -1.285144 6.075083 8.183224
C -1.234571 5.977273 11.286932
C -2.455653 5.220218 8.066551
C -1.313755 4.462965 11.462754
C -1.285144 6.075083 14.683135
C -1.234571 5.977273 17.786842
C -2.455653 5.220218 14.566461
C -1.313755 4.462965 17.962664
C 3.437244 1.727975 1.683314
C 3.487817 1.630165 4.787021
C 2.266736 0.873110 1.566641
C 3.408634 0.115857 4.962844
C 3.437244 1.727975 8.183224
C 3.487817 1.630165 11.286932
C 2.266736 0.873110 8.066551
C 3.408634 0.115857 11.462754
C 3.437244 1.727975 14.683135
C 3.487817 1.630165 17.786842
C 2.266736 0.873110 14.566461
C 3.408634 0.115857 17.962664
C 2.313394 3.901529 1.683314
C 2.363967 3.803719 4.787021
C 1.142886 3.046664 1.566641
C 2.284784 2.289411 4.962844
C 2.313394 3.901529 8.183224
C 2.363967 3.803719 11.286932
C 1.142886 3.046664 8.066551
C 2.284784 2.289411 11.462754
C 2.313394 3.901529 14.683135
C 2.363967 3.803719 17.786842
C 1.142886 3.046664 14.566461
C 2.284784 2.289411 17.962664
C 1.189544 6.075083 1.683314
C 1.240117 5.977273 4.787021
C 0.019036 5.220218 1.566641
C 1.160934 4.462965 4.962844
C 1.189544 6.075083 8.183224
C 1.240117 5.977273 11.286932
C 0.019036 5.220218 8.066551
C 1.160934 4.462965 11.462754
C 1.189544 6.075083 14.683135
C 1.240117 5.977273 17.786842
C 0.019036 5.220218 14.566461
C 1.160934 4.462965 17.962664
C 5.911933 1.727975 1.683314
C 5.962506 1.630165 4.787021
C 4.741424 0.873110 1.566641
C 5.883322 0.115857 4.962844
C 5.911933 1.727975 8.183224
C 5.962506 1.630165 11.286932
C 4.741424 0.873110 8.066551
C 5.883322 0.115857 11.462754
C 5.911933 1.727975 14.683135
C 5.962506 1.630165 17.786842
C 4.741424 0.873110 14.566461
C 5.883322 0.115857 17.962664
C 4.788083 3.901529 1.683314
C 4.838656 3.803719 4.787021
C 3.617574 3.046664 1.566641
C 4.759472 2.289411 4.962844
C 4.788083 3.901529 8.183224
C 4.838656 3.803719 11.286932
C 3.617574 3.046664 8.066551
C 4.759472 2.289411 11.462754
C 4.788083 3.901529 14.683135
C 4.838656 3.803719 17.786842
C 3.617574 3.046664 14.566461
C 4.759472 2.289411 17.962664
C 3.664233 6.075083 1.683314
C 3.714806 5.977273 4.787021
C 2.493724 5.220218 1.566641
C 3.635622 4.462965 4.962844
C 3.664233 6.075083 8.183224
C 3.714806 5.977273 11.286932
C 2.493724 5.220218 8.066551
C 3.635622 4.462965 11.462754
C 3.664233 6.075083 14.683135
C 3.714806 5.977273 17.786842
C 2.493724 5.220218 14.566461
C 3.635622 4.462965 17.962664
