108
A
C 2.792370 1.627134 1.361110
C 2.718887 1.584314 4.315599
C 1.469670 0.856266 1.555783
C 0.367416 0.214216 4.640670
C 2.792370 1.627134 7.763653
C 2.718887 1.584314 10.718143
C 1.469670 0.856266 7.958326
C 0.367416 0.214216 11.043213
C 2.792370 1.627134 14.166197
C 2.718887 1.584314 17.120686
C 1.469670 0.856266 14.360870
C 0.367416 0.214216 17.445756
C 4.005386 3.768099 0.778657
C 3.931903 3.725280 3.733147
C 2.682686 2.997232 0.973330
C 1.580432 2.355182 4.058217
C 4.005386 3.768099 7.181201
C 3.931903 3.725280 10.135690
C 2.682686 2.997232 7.375874
C 1.580432 2.355182 10.460760
C 4.005386 3.768099 13.583744
C 3.931903 3.725280 16.538233
C 2.682686 2.997232 13.778417
C 1.580432 2.355182 16.863304
C 5.218403 5.909064 0.196205
C 5.144919 5.866245 3.150694
C 3.895702 5.138197 0.390878
C 2.793448 4.496147 3.475764
C 5.218403 5.909064 6.598748
C 5.144919 5.866245 9.553237
C 3.895702 5.138197 6.793421
C 2.793448 4.496147 9.878308
C 5.218403 5.909064 13.001291
C 5.144919 5.866245 15.955780
C 3.895702 5.138197 13.195964
C 2.793448 4.496147 16.280851
C 5.253526 1.627134 1.477601
C 5.180042 1.584314 4.432090
C 3.930825 0.856266 1.672274
C 2.828572 0.214216 4.757160
C 5.253526 1.627134 7.880144
C 5.180042 1.584314 10.834633
C 3.930825 0.856266 8.074817
C 2.828572 0.214216 11.159704
C 5.253526 1.627134 14.282687
C 5.180042 1.584314 17.237176
C 3.930825 0.856266 14.477360
C 2.828572 0.214216 17.562247
C 6.466542 3.768099 0.895148
C 6.393058 3.725280 3.849637
C 5.143841 2.997232 1.089821
C 4.041588 2.355182 4.174708
C 6.466542 3.768099 7.297691
C 6.393058 3.725280 10.252180
C 5.143841 2.997232 7.492364
C 4.041588 2.355182 10.577251
C 6.466542 3.768099 13.700234
C 6.393058 3.725280 16.654724
C 5.143841 2.997232 13.894907
C 4.041588 2.355182 16.979794
C 7.679558 5.909064 0.312695
C 7.606075 5.866245 3.267184
C 6.356857 5.138197 0.507368
C 5.254604 4.496147 3.592255
C 7.679558 5.909064 6.715238
C 7.606075 5.866245 9.669728
C 6.356857 5.138197 6.909911
C 5.254604 4.496147 9.994798
C 7.679558 5.909064 13.117782
C 7.606075 5.866245 16.072271
C 6.356857 5.138197 13.312455
C 5.254604 4.496147 16.397341
C 7.714681 1.627134 1.594091
C 7.641198 1.584314 4.548580
C 6.391980 0.856266 1.788764
C 5.289727 0.214216 4.873651
C 7.714681 1.627134 7.996634
C 7.641198 1.584314 10.951124
C 6.391980 0.856266 8.191307
C 5.289727 0.214216 11.276194
C 7.714681 1.627134 14.399178
C 7.641198 1.584314 17.353667
C 6.391980 0.856266 14.593851
C 5.289727 0.214216 17.678737
C 8.927697 3.768099 1.011638
C 8.854214 3.725280 3.966128
C 7.604997 2.997232 1.206311
C 6.502743 2.355182 4.291198
C 8.927697 3.768099 7.414182
C 8.854214 3.725280 10.368671
C 7.604997 2.997232 7.608855
C 6.502743 2.355182 10.693741
C 8.927697 3.768099 13.816725
C 8.854214 3.725280 16.771214
C 7.604997 2.997232 14.011398
C 6.502743 2.355182 17.096285
C 10.140713 5.909064 0.429186
C 10.067230 5.866245 3.383675
C 8.818013 5.138197 0.623859
C 7.715759 4.496147 3.708745
C 10.140713 5.909064 6.831729
C 10.067230 5.866245 9.786218
C 8.818013 5.138197 7.026402
C 7.715759 4.496147 10.111289
C 10.140713 5.909064 13.234272
C 10.067230 5.866245 16.188761
C 8.818013 5.138197 13.428945
C 7.715759 4.496147 16.513832
