108
A
C 2.828814 1.694390 0.277511
C 2.546605 1.525353 2.225049
C 1.257999 0.753456 1.091534
C 0.533807 0.319791 3.265231
C 2.828814 1.694390 5.541901
C 2.546605 1.525353 7.489439
C 1.257999 0.753456 6.355924
C 0.533807 0.319791 8.529620
C 2.828814 1.694390 10.806290
C 2.546605 1.525353 12.753828
C 1.257999 0.753456 11.620313
C 0.533807 0.319791 13.794009
C 3.977253 3.840886 -2.015896
C 3.695043 3.671849 -0.068358
C 2.406438 2.899952 -1.201873
C 1.682246 2.466287 0.971823
C 3.977253 3.840886 3.248493
C 3.695043 3.671849 5.196031
C 2.406438 2.899952 4.062516
C 1.682246 2.466287 6.236212
C 3.977253 3.840886 8.512882
C 3.695043 3.671849 10.460420
C 2.406438 2.899952 9.326905
C 1.682246 2.466287 11.500602
C 5.125691 5.987381 -4.309304
C 4.843482 5.818345 -2.361766
C 3.554876 5.046448 -3.495281
C 2.830684 4.612783 -1.321584
C 5.125691 5.987381 0.955085
C 4.843482 5.818345 2.902623
C 3.554876 5.046448 1.769108
C 2.830684 4.612783 3.942805
C 5.125691 5.987381 6.219475
C 4.843482 5.818345 8.167012
C 3.554876 5.046448 7.033497
C 2.830684 4.612783 9.207194
C 5.263989 1.694390 0.736193
C 4.981779 1.525353 2.683731
C 3.693174 0.753456 1.550216
C 2.968982 0.319791 3.723912
C 5.263989 1.694390 6.000582
C 4.981779 1.525353 7.948120
C 3.693174 0.753456 6.814605
C 2.968982 0.319791 8.988302
C 5.263989 1.694390 11.264971
C 4.981779 1.525353 13.212509
C 3.693174 0.753456 12.078994
C 2.968982 0.319791 14.252691
C 6.412427 3.840886 -1.557215
C 6.130218 3.671849 0.390323
C 4.841612 2.899952 -0.743192
C 4.117420 2.466287 1.430505
C 6.412427 3.840886 3.707175
C 6.130218 3.671849 5.654712
C 4.841612 2.899952 4.521197
C 4.117420 2.466287 6.694894
C 6.412427 3.840886 8.971564
C 6.130218 3.671849 10.919102
C 4.841612 2.899952 9.785587
C 4.117420 2.466287 11.959283
C 7.560866 5.987381 -3.850622
C 7.278656 5.818345 -1.903084
C 5.990051 5.046448 -3.036599
C 5.265859 4.612783 -0.862903
C 7.560866 5.987381 1.413767
C 7.278656 5.818345 3.361305
C 5.990051 5.046448 2.227790
C 5.265859 4.612783 4.401486
C 7.560866 5.987381 6.678156
C 7.278656 5.818345 8.625694
C 5.990051 5.046448 7.492179
C 5.265859 4.612783 9.665875
C 7.699164 1.694390 1.194875
C 7.416954 1.525353 3.142412
C 6.128348 0.753456 2.008897
C 5.404156 0.319791 4.182594
C 7.699164 1.694390 6.459264
C 7.416954 1.525353 8.406802
C 6.128348 0.753456 7.273287
C 5.404156 0.319791 9.446983
C 7.699164 1.694390 11.723653
C 7.416954 1.525353 13.671191
C 6.128348 0.753456 12.537676
C 5.404156 0.319791 14.711372
C 8.847602 3.840886 -1.098533
C 8.565392 3.671849 0.849005
C 7.276787 2.899952 -0.284510
C 6.552595 2.466287 1.889186
C 8.847602 3.840886 4.165856
C 8.565392 3.671849 6.113394
C 7.276787 2.899952 4.979879
C 6.552595 2.466287 7.153575
C 8.847602 3.840886 9.430245
C 8.565392 3.671849 11.377783
C 7.276787 2.899952 10.244268
C 6.552595 2.466287 12.417965
C 9.996040 5.987381 -3.391941
C 9.713831 5.818345 -1.444403
C 8.425225 5.046448 -2.577918
C 7.701033 4.612783 -0.404221
C 9.996040 5.987381 1.872448
C 9.713831 5.818345 3.819986
C 8.425225 5.046448 2.686471
C 7.701033 4.612783 4.860168
C 9.996040 5.987381 7.136838
C 9.713831 5.818345 9.084376
C 8.425225 5.046448 7.950861
C 7.701033 4.612783 10.124557
