108
A
C 1.436486 2.599335 1.541590
C 1.573015 1.796775 3.081212
C 0.364204 0.730715 0.773631
C 0.821002 -0.335424 3.864452
C 1.436486 2.599335 6.172033
C 1.573015 1.796775 7.711655
C 0.364204 0.730715 5.404074
C 0.821002 -0.335424 8.494894
C 1.436486 2.599335 10.802475
C 1.573015 1.796775 12.342097
C 0.364204 0.730715 10.034516
C 0.821002 -0.335424 13.125337
C 1.028936 4.995036 1.541590
C 1.165465 4.192476 3.081212
C -0.043346 3.126416 0.773631
C 0.413452 2.060276 3.864452
C 1.028936 4.995036 6.172033
C 1.165465 4.192476 7.711655
C -0.043346 3.126416 5.404074
C 0.413452 2.060276 8.494894
C 1.028936 4.995036 10.802475
C 1.165465 4.192476 12.342097
C -0.043346 3.126416 10.034516
C 0.413452 2.060276 13.125337
C 0.621386 7.390736 1.541590
C 0.757915 6.588176 3.081212
C -0.450896 5.522116 0.773631
C 0.005902 4.455977 3.864452
C 0.621386 7.390736 6.172033
C 0.757915 6.588176 7.711655
C -0.450896 5.522116 5.404074
C 0.005902 4.455977 8.494894
C 0.621386 7.390736 10.802475
C 0.757915 6.588176 12.342097
C -0.450896 5.522116 10.034516
C 0.005902 4.455977 13.125337
C 3.941389 2.599335 1.541590
C 4.077918 1.796775 3.081212
C 2.869107 0.730715 0.773631
C 3.325905 -0.335424 3.864452
C 3.941389 2.599335 6.172033
C 4.077918 1.796775 7.711655
C 2.869107 0.730715 5.404074
C 3.325905 -0.335424 8.494894
C 3.941389 2.599335 10.802475
C 4.077918 1.796775 12.342097
C 2.869107 0.730715 10.034516
C 3.325905 -0.335424 13.125337
C 3.533839 4.995036 1.541590
C 3.670368 4.192476 3.081212
C 2.461557 3.126416 0.773631
C 2.918355 2.060276 3.864452
C 3.533839 4.995036 6.172033
C 3.670368 4.192476 7.711655
C 2.461557 3.126416 5.404074
C 2.918355 2.060276 8.494894
C 3.533839 4.995036 10.802475
C 3.670368 4.192476 12.342097
C 2.461557 3.126416 10.034516
C 2.918355 2.060276 13.125337
C 3.126289 7.390736 1.541590
C 3.262818 6.588176 3.081212
C 2.054007 5.522116 0.773631
C 2.510805 4.455977 3.864452
C 3.126289 7.390736 6.172033
C 3.262818 6.588176 7.711655
C 2.054007 5.522116 5.404074
C 2.510805 4.455977 8.494894
C 3.126289 7.390736 10.802475
C 3.262818 6.588176 12.342097
C 2.054007 5.522116 10.034516
C 2.510805 4.455977 13.125337
C 6.446292 2.599335 1.541590
C 6.582821 1.796775 3.081212
C 5.374010 0.730715 0.773631
C 5.830808 -0.335424 3.864452
C 6.446292 2.599335 6.172033
C 6.582821 1.796775 7.711655
C 5.374010 0.730715 5.404074
C 5.830808 -0.335424 8.494894
C 6.446292 2.599335 10.802475
C 6.582821 1.796775 12.342097
C 5.374010 0.730715 10.034516
C 5.830808 -0.335424 13.125337
C 6.038742 4.995036 1.541590
C 6.175271 4.192476 3.081212
C 4.966460 3.126416 0.773631
C 5.423258 2.060276 3.864452
C 6.038742 4.995036 6.172033
C 6.175271 4.192476 7.711655
C 4.966460 3.126416 5.404074
C 5.423258 2.060276 8.494894
C 6.038742 4.995036 10.802475
C 6.175271 4.192476 12.342097
C 4.966460 3.126416 10.034516
C 5.423258 2.060276 13.125337
C 5.631192 7.390736 1.541590
C 5.767721 6.588176 3.081212
C 4.558910 5.522116 0.773631
C 5.015708 4.455977 3.864452
C 5.631192 7.390736 6.172033
C 5.767721 6.588176 7.711655
C 4.558910 5.522116 5.404074
C 5.015708 4.455977 8.494894
C 5.631192 7.390736 10.802475
C 5.767721 6.588176 12.342097
C 4.558910 5.522116 10.034516
C 5.015708 4.455977 13.125337
