108
A
C 1.226131 2.284312 1.621693
C 1.379951 1.739324 3.639414
C 0.181895 0.784669 1.015850
C 0.891891 -0.170108 4.273216
C 1.226131 2.284312 6.896780
C 1.379951 1.739324 8.914501
C 0.181895 0.784669 6.290936
C 0.891891 -0.170108 9.548302
C 1.226131 2.284312 12.171867
C 1.379951 1.739324 14.189587
C 0.181895 0.784669 11.566023
C 0.891891 -0.170108 14.823389
C 0.571581 4.603410 1.621693
C 0.725401 4.058422 3.639414
C -0.472655 3.103767 1.015850
C 0.237341 2.148990 4.273216
C 0.571581 4.603410 6.896780
C 0.725401 4.058422 8.914501
C -0.472655 3.103767 6.290936
C 0.237341 2.148990 9.548302
C 0.571581 4.603410 12.171867
C 0.725401 4.058422 14.189587
C -0.472655 3.103767 11.566023
C 0.237341 2.148990 14.823389
C -0.082969 6.922508 1.621693
C 0.070851 6.377520 3.639414
C -1.127205 5.422866 1.015850
C -0.417209 4.468088 4.273216
C -0.082969 6.922508 6.896780
C 0.070851 6.377520 8.914501
C -1.127205 5.422866 6.290936
C -0.417209 4.468088 9.548302
C -0.082969 6.922508 12.171867
C 0.070851 6.377520 14.189587
C -1.127205 5.422866 11.566023
C -0.417209 4.468088 14.823389
C 3.720616 2.284312 1.621693
C 3.874435 1.739324 3.639414
C 2.676380 0.784669 1.015850
C 3.386375 -0.170108 4.273216
C 3.720616 2.284312 6.896780
C 3.874435 1.739324 8.914501
C 2.676380 0.784669 6.290936
C 3.386375 -0.170108 9.548302
C 3.720616 2.284312 12.171867
C 3.874435 1.739324 14.189587
C 2.676380 0.784669 11.566023
C 3.386375 -0.170108 14.823389
C 3.066066 4.603410 1.621693
C 3.219885 4.058422 3.639414
C 2.021830 3.103767 1.015850
C 2.731825 2.148990 4.273216
C 3.066066 4.603410 6.896780
C 3.219885 4.058422 8.914501
C 2.021830 3.103767 6.290936
C 2.731825 2.148990 9.548302
C 3.066066 4.603410 12.171867
C 3.219885 4.058422 14.189587
C 2.021830 3.103767 11.566023
C 2.731825 2.148990 14.823389
C 2.411516 6.922508 1.621693
C 2.565335 6.377520 3.639414
C 1.367280 5.422866 1.015850
C 2.077275 4.468088 4.273216
C 2.411516 6.922508 6.896780
C 2.565335 6.377520 8.914501
C 1.367280 5.422866 6.290936
C 2.077275 4.468088 9.548302
C 2.411516 6.922508 12.171867
C 2.565335 6.377520 14.189587
C 1.367280 5.422866 11.566023
C 2.077275 4.468088 14.823389
C 6.215100 2.284312 1.621693
C 6.368919 1.739324 3.639414
C 5.170864 0.784669 1.015850
C 5.880860 -0.170108 4.273216
C 6.215100 2.284312 6.896780
C 6.368919 1.739324 8.914501
C 5.170864 0.784669 6.290936
C 5.880860 -0.170108 9.548302
C 6.215100 2.284312 12.171867
C 6.368919 1.739324 14.189587
C 5.170864 0.784669 11.566023
C 5.880860 -0.170108 14.823389
C 5.560550 4.603410 1.621693
C 5.714369 4.058422 3.639414
C 4.516314 3.103767 1.015850
C 5.226310 2.148990 4.273216
C 5.560550 4.603410 6.896780
C 5.714369 4.058422 8.914501
C 4.516314 3.103767 6.290936
C 5.226310 2.148990 9.548302
C 5.560550 4.603410 12.171867
C 5.714369 4.058422 14.189587
C 4.516314 3.103767 11.566023
C 5.226310 2.148990 14.823389
C 4.906000 6.922508 1.621693
C 5.059819 6.377520 3.639414
C 3.861764 5.422866 1.015850
C 4.571760 4.468088 4.273216
C 4.906000 6.922508 6.896780
C 5.059819 6.377520 8.914501
C 3.861764 5.422866 6.290936
C 4.571760 4.468088 9.548302
C 4.906000 6.922508 12.171867
C 5.059819 6.377520 14.189587
C 3.861764 5.422866 11.566023
C 4.571760 4.468088 14.823389
