108
A
C 1.086171 2.028588 1.663932
C 1.215846 1.690490 4.138721
C 0.014530 0.826514 1.247585
C 0.925710 -0.037619 4.595830
C 1.086171 2.028588 7.486966
C 1.215846 1.690490 9.961755
C 0.014530 0.826514 7.070619
C 0.925710 -0.037619 10.418864
C 1.086171 2.028588 13.310000
C 1.215846 1.690490 15.784789
C 0.014530 0.826514 12.893653
C 0.925710 -0.037619 16.241898
C 0.221671 4.282574 1.663932
C 0.351346 3.944476 4.138721
C -0.849970 3.080500 1.247585
C 0.061210 2.216367 4.595830
C 0.221671 4.282574 7.486966
C 0.351346 3.944476 9.961755
C -0.849970 3.080500 7.070619
C 0.061210 2.216367 10.418864
C 0.221671 4.282574 13.310000
C 0.351346 3.944476 15.784789
C -0.849970 3.080500 12.893653
C 0.061210 2.216367 16.241898
C -0.642829 6.536560 1.663932
C -0.513154 6.198462 4.138721
C -1.714470 5.334487 1.247585
C -0.803290 4.470353 4.595830
C -0.642829 6.536560 7.486966
C -0.513154 6.198462 9.961755
C -1.714470 5.334487 7.070619
C -0.803290 4.470353 10.418864
C -0.642829 6.536560 13.310000
C -0.513154 6.198462 15.784789
C -1.714470 5.334487 12.893653
C -0.803290 4.470353 16.241898
C 3.571800 2.028588 1.663932
C 3.701475 1.690490 4.138721
C 2.500158 0.826514 1.247585
C 3.411338 -0.037619 4.595830
C 3.571800 2.028588 7.486966
C 3.701475 1.690490 9.961755
C 2.500158 0.826514 7.070619
C 3.411338 -0.037619 10.418864
C 3.571800 2.028588 13.310000
C 3.701475 1.690490 15.784789
C 2.500158 0.826514 12.893653
C 3.411338 -0.037619 16.241898
C 2.707300 4.282574 1.663932
C 2.836975 3.944476 4.138721
C 1.635658 3.080500 1.247585
C 2.546838 2.216367 4.595830
C 2.707300 4.282574 7.486966
C 2.836975 3.944476 9.961755
C 1.635658 3.080500 7.070619
C 2.546838 2.216367 10.418864
C 2.707300 4.282574 13.310000
C 2.836975 3.944476 15.784789
C 1.635658 3.080500 12.893653
C 2.546838 2.216367 16.241898
C 1.842800 6.536560 1.663932
C 1.972475 6.198462 4.138721
C 0.771158 5.334487 1.247585
C 1.682338 4.470353 4.595830
C 1.842800 6.536560 7.486966
C 1.972475 6.198462 9.961755
C 0.771158 5.334487 7.070619
C 1.682338 4.470353 10.418864
C 1.842800 6.536560 13.310000
C 1.972475 6.198462 15.784789
C 0.771158 5.334487 12.893653
C 1.682338 4.470353 16.241898
C 6.057428 2.028588 1.663932
C 6.187103 1.690490 4.138721
C 4.985786 0.826514 1.247585
C 5.896966 -0.037619 4.595830
C 6.057428 2.028588 7.486966
C 6.187103 1.690490 9.961755
C 4.985786 0.826514 7.070619
C 5.896966 -0.037619 10.418864
C 6.057428 2.028588 13.310000
C 6.187103 1.690490 15.784789
C 4.985786 0.826514 12.893653
C 5.896966 -0.037619 16.241898
C 5.192928 4.282574 1.663932
C 5.322603 3.944476 4.138721
C 4.121286 3.080500 1.247585
C 5.032466 2.216367 4.595830
C 5.192928 4.282574 7.486966
C 5.322603 3.944476 9.961755
C 4.121286 3.080500 7.070619
C 5.032466 2.216367 10.418864
C 5.192928 4.282574 13.310000
C 5.322603 3.944476 15.784789
C 4.121286 3.080500 12.893653
C 5.032466 2.216367 16.241898
C 4.328428 6.536560 1.663932
C 4.458103 6.198462 4.138721
C 3.256786 5.334487 1.247585
C 4.167966 4.470353 4.595830
C 4.328428 6.536560 7.486966
C 4.458103 6.198462 9.961755
C 3.256786 5.334487 7.070619
C 4.167966 4.470353 10.418864
C 4.328428 6.536560 13.310000
C 4.458103 6.198462 15.784789
C 3.256786 5.334487 12.893653
C 4.167966 4.470353 16.241898
