108
A
C 2.794856 1.631417 1.298422
C 2.707731 1.580561 4.175842
C 1.455894 0.849720 1.526065
C 0.378302 0.220939 4.552801
C 2.794856 1.631417 7.628318
C 2.707731 1.580561 10.505737
C 1.455894 0.849720 7.855960
C 0.378302 0.220939 10.882696
C 2.794856 1.631417 13.958213
C 2.707731 1.580561 16.835632
C 1.455894 0.849720 14.185855
C 0.378302 0.220939 17.212591
C 4.003750 3.772735 0.606760
C 3.916625 3.721879 3.484179
C 2.664788 2.991038 0.834402
C 1.587196 2.362257 3.861139
C 4.003750 3.772735 6.936655
C 3.916625 3.721879 9.814074
C 2.664788 2.991038 7.164298
C 1.587196 2.362257 10.191034
C 4.003750 3.772735 13.266550
C 3.916625 3.721879 16.143969
C 2.664788 2.991038 13.494193
C 1.587196 2.362257 16.520929
C 5.212644 5.914054 -0.084903
C 5.125520 5.863197 2.792516
C 3.873682 5.132357 0.142740
C 2.796090 4.503576 3.169476
C 5.212644 5.914054 6.244992
C 5.125520 5.863197 9.122411
C 3.873682 5.132357 6.472635
C 2.796090 4.503576 9.499371
C 5.212644 5.914054 12.574887
C 5.125520 5.863197 15.452307
C 3.873682 5.132357 12.802530
C 2.796090 4.503576 15.829266
C 5.254353 1.631417 1.436755
C 5.167228 1.580561 4.314174
C 3.915391 0.849720 1.664398
C 2.837799 0.220939 4.691134
C 5.254353 1.631417 7.766650
C 5.167228 1.580561 10.644069
C 3.915391 0.849720 7.994293
C 2.837799 0.220939 11.021029
C 5.254353 1.631417 14.096545
C 5.167228 1.580561 16.973964
C 3.915391 0.849720 14.324188
C 2.837799 0.220939 17.350924
C 6.463247 3.772735 0.745092
C 6.376122 3.721879 3.622511
C 5.124285 2.991038 0.972735
C 4.046693 2.362257 3.999471
C 6.463247 3.772735 7.074987
C 6.376122 3.721879 9.952407
C 5.124285 2.991038 7.302630
C 4.046693 2.362257 10.329366
C 6.463247 3.772735 13.404883
C 6.376122 3.721879 16.282302
C 5.124285 2.991038 13.632525
C 4.046693 2.362257 16.659261
C 7.672141 5.914054 0.053430
C 7.585017 5.863197 2.930849
C 6.333179 5.132357 0.281072
C 5.255587 4.503576 3.307808
C 7.672141 5.914054 6.383325
C 7.585017 5.863197 9.260744
C 6.333179 5.132357 6.610967
C 5.255587 4.503576 9.637704
C 7.672141 5.914054 12.713220
C 7.585017 5.863197 15.590639
C 6.333179 5.132357 12.940863
C 5.255587 4.503576 15.967599
C 7.713850 1.631417 1.575087
C 7.626725 1.580561 4.452507
C 6.374888 0.849720 1.802730
C 5.297296 0.220939 4.829466
C 7.713850 1.631417 7.904983
C 7.626725 1.580561 10.782402
C 6.374888 0.849720 8.132625
C 5.297296 0.220939 11.159361
C 7.713850 1.631417 14.234878
C 7.626725 1.580561 17.112297
C 6.374888 0.849720 14.462520
C 5.297296 0.220939 17.489256
C 8.922744 3.772735 0.883425
C 8.835620 3.721879 3.760844
C 7.583782 2.991038 1.111067
C 6.506190 2.362257 4.137804
C 8.922744 3.772735 7.213320
C 8.835620 3.721879 10.090739
C 7.583782 2.991038 7.440963
C 6.506190 2.362257 10.467699
C 8.922744 3.772735 13.543215
C 8.835620 3.721879 16.420634
C 7.583782 2.991038 13.770858
C 6.506190 2.362257 16.797594
C 10.131638 5.914054 0.191762
C 10.044514 5.863197 3.069181
C 8.792676 5.132357 0.419405
C 7.715084 4.503576 3.446141
C 10.131638 5.914054 6.521657
C 10.044514 5.863197 9.399076
C 8.792676 5.132357 6.749300
C 7.715084 4.503576 9.776036
C 10.131638 5.914054 12.851552
C 10.044514 5.863197 15.728972
C 8.792676 5.132357 13.079195
C 7.715084 4.503576 16.105931
