108
A
C 1.413227 2.567143 1.551080
C 1.553708 1.791030 3.135611
C 0.346683 0.736340 0.796374
C 0.829604 -0.318433 3.906749
C 1.413227 2.567143 6.245987
C 1.553708 1.791030 7.830518
C 0.346683 0.736340 5.491281
C 0.829604 -0.318433 8.601656
C 1.413227 2.567143 10.940894
C 1.553708 1.791030 12.525425
C 0.346683 0.736340 10.186188
C 0.829604 -0.318433 13.296563
C 0.980977 4.955184 1.551080
C 1.121458 4.179070 3.135611
C -0.085567 3.124381 0.796374
C 0.397354 2.069607 3.906749
C 0.980977 4.955184 6.245987
C 1.121458 4.179070 7.830518
C -0.085567 3.124381 5.491281
C 0.397354 2.069607 8.601656
C 0.980977 4.955184 10.940894
C 1.121458 4.179070 12.525425
C -0.085567 3.124381 10.186188
C 0.397354 2.069607 13.296563
C 0.548727 7.343224 1.551080
C 0.689208 6.567111 3.135611
C -0.517817 5.512421 0.796374
C -0.034896 4.457647 3.906749
C 0.548727 7.343224 6.245987
C 0.689208 6.567111 7.830518
C -0.517817 5.512421 5.491281
C -0.034896 4.457647 8.601656
C 0.548727 7.343224 10.940894
C 0.689208 6.567111 12.525425
C -0.517817 5.512421 10.186188
C -0.034896 4.457647 13.296563
C 3.917089 2.567143 1.551080
C 4.057570 1.791030 3.135611
C 2.850544 0.736340 0.796374
C 3.333465 -0.318433 3.906749
C 3.917089 2.567143 6.245987
C 4.057570 1.791030 7.830518
C 2.850544 0.736340 5.491281
C 3.333465 -0.318433 8.601656
C 3.917089 2.567143 10.940894
C 4.057570 1.791030 12.525425
C 2.850544 0.736340 10.186188
C 3.333465 -0.318433 13.296563
C 3.484839 4.955184 1.551080
C 3.625320 4.179070 3.135611
C 2.418294 3.124381 0.796374
C 2.901215 2.069607 3.906749
C 3.484839 4.955184 6.245987
C 3.625320 4.179070 7.830518
C 2.418294 3.124381 5.491281
C 2.901215 2.069607 8.601656
C 3.484839 4.955184 10.940894
C 3.625320 4.179070 12.525425
C 2.418294 3.124381 10.186188
C 2.901215 2.069607 13.296563
C 3.052589 7.343224 1.551080
C 3.193070 6.567111 3.135611
C 1.986044 5.512421 0.796374
C 2.468965 4.457647 3.906749
C 3.052589 7.343224 6.245987
C 3.193070 6.567111 7.830518
C 1.986044 5.512421 5.491281
C 2.468965 4.457647 8.601656
C 3.052589 7.343224 10.940894
C 3.193070 6.567111 12.525425
C 1.986044 5.512421 10.186188
C 2.468965 4.457647 13.296563
C 6.420950 2.567143 1.551080
C 6.561431 1.791030 3.135611
C 5.354406 0.736340 0.796374
C 5.837326 -0.318433 3.906749
C 6.420950 2.567143 6.245987
C 6.561431 1.791030 7.830518
C 5.354406 0.736340 5.491281
C 5.837326 -0.318433 8.601656
C 6.420950 2.567143 10.940894
C 6.561431 1.791030 12.525425
C 5.354406 0.736340 10.186188
C 5.837326 -0.318433 13.296563
C 5.988700 4.955184 1.551080
C 6.129181 4.179070 3.135611
C 4.922156 3.124381 0.796374
C 5.405076 2.069607 3.906749
C 5.988700 4.955184 6.245987
C 6.129181 4.179070 7.830518
C 4.922156 3.124381 5.491281
C 5.405076 2.069607 8.601656
C 5.988700 4.955184 10.940894
C 6.129181 4.179070 12.525425
C 4.922156 3.124381 10.186188
C 5.405076 2.069607 13.296563
C 5.556450 7.343224 1.551080
C 5.696931 6.567111 3.135611
C 4.489906 5.512421 0.796374
C 4.972826 4.457647 3.906749
C 5.556450 7.343224 6.245987
C 5.696931 6.567111 7.830518
C 4.489906 5.512421 5.491281
C 4.972826 4.457647 8.601656
C 5.556450 7.343224 10.940894
C 5.696931 6.567111 12.525425
C 4.489906 5.512421 10.186188
C 4.972826 4.457647 13.296563
