108
A
C 2.800570 1.641416 1.148716
C 2.681786 1.571797 3.853091
C 1.423891 0.834437 1.456768
C 0.403561 0.236634 4.347814
C 2.800570 1.641416 7.309099
C 2.681786 1.571797 10.013474
C 1.423891 0.834437 7.617151
C 0.403561 0.236634 10.508197
C 2.800570 1.641416 13.469481
C 2.681786 1.571797 16.173857
C 1.423891 0.834437 13.777534
C 0.403561 0.236634 16.668579
C 3.999846 3.783558 0.202230
C 3.881062 3.713939 2.906605
C 2.623167 2.976579 0.510282
C 1.602837 2.378776 3.401328
C 3.999846 3.783558 6.362613
C 3.881062 3.713939 9.066988
C 2.623167 2.976579 6.670665
C 1.602837 2.378776 9.561711
C 3.999846 3.783558 12.522996
C 3.881062 3.713939 15.227371
C 2.623167 2.976579 12.831048
C 1.602837 2.378776 15.722094
C 5.199122 5.925700 -0.744256
C 5.080338 5.856081 1.960119
C 3.822443 5.118721 -0.436203
C 2.802113 4.520918 2.454842
C 5.199122 5.925700 5.416127
C 5.080338 5.856081 8.120502
C 3.822443 5.118721 5.724180
C 2.802113 4.520918 8.615225
C 5.199122 5.925700 11.576510
C 5.080338 5.856081 14.280885
C 3.822443 5.118721 11.884562
C 2.802113 4.520918 14.775608
C 5.256198 1.641416 1.338013
C 5.137413 1.571797 4.042388
C 3.879519 0.834437 1.646065
C 2.859188 0.236634 4.537111
C 5.256198 1.641416 7.498396
C 5.137413 1.571797 10.202771
C 3.879519 0.834437 7.806448
C 2.859188 0.236634 10.697494
C 5.256198 1.641416 13.658779
C 5.137413 1.571797 16.363154
C 3.879519 0.834437 13.966831
C 2.859188 0.236634 16.857877
C 6.455474 3.783558 0.391527
C 6.336689 3.713939 3.095902
C 5.078795 2.976579 0.699580
C 4.058465 2.378776 3.590625
C 6.455474 3.783558 6.551910
C 6.336689 3.713939 9.256285
C 5.078795 2.976579 6.859962
C 4.058465 2.378776 9.751008
C 6.455474 3.783558 12.712293
C 6.336689 3.713939 15.416668
C 5.078795 2.976579 13.020345
C 4.058465 2.378776 15.911391
C 7.654750 5.925700 -0.554959
C 7.535966 5.856081 2.149417
C 6.278071 5.118721 -0.246906
C 5.257741 4.520918 2.644140
C 7.654750 5.925700 5.605424
C 7.535966 5.856081 8.309799
C 6.278071 5.118721 5.913477
C 5.257741 4.520918 8.804522
C 7.654750 5.925700 11.765807
C 7.535966 5.856081 14.470182
C 6.278071 5.118721 12.073860
C 5.257741 4.520918 14.964905
C 7.711825 1.641416 1.527310
C 7.593041 1.571797 4.231685
C 6.335146 0.834437 1.835362
C 5.314816 0.236634 4.726408
C 7.711825 1.641416 7.687693
C 7.593041 1.571797 10.392068
C 6.335146 0.834437 7.995745
C 5.314816 0.236634 10.886791
C 7.711825 1.641416 13.848076
C 7.593041 1.571797 16.552451
C 6.335146 0.834437 14.156128
C 5.314816 0.236634 17.047174
C 8.911101 3.783558 0.580824
C 8.792317 3.713939 3.285199
C 7.534422 2.976579 0.888877
C 6.514092 2.378776 3.779922
C 8.911101 3.783558 6.741207
C 8.792317 3.713939 9.445582
C 7.534422 2.976579 7.049260
C 6.514092 2.378776 9.940305
C 8.911101 3.783558 12.901590
C 8.792317 3.713939 15.605965
C 7.534422 2.976579 13.209642
C 6.514092 2.378776 16.100688
C 10.110378 5.925700 -0.365661
C 9.991593 5.856081 2.338714
C 8.733699 5.118721 -0.057609
C 7.713368 4.520918 2.833437
C 10.110378 5.925700 5.794721
C 9.991593 5.856081 8.499097
C 8.733699 5.118721 6.102774
C 7.713368 4.520918 8.993820
C 10.110378 5.925700 11.955104
C 9.991593 5.856081 14.659479
C 8.733699 5.118721 12.263157
C 7.713368 4.520918 15.154202
