108
A
C 1.198839 2.238380 1.630873
C 1.350991 1.730706 3.725869
C 0.153189 0.792322 1.055018
C 0.899624 -0.146192 4.331806
C 1.198839 2.238380 7.002657
C 1.350991 1.730706 9.097652
C 0.153189 0.792322 6.426801
C 0.899624 -0.146192 9.703589
C 1.198839 2.238380 12.374440
C 1.350991 1.730706 14.469435
C 0.153189 0.792322 11.798585
C 0.899624 -0.146192 15.075372
C 0.507239 4.545987 1.630873
C 0.659391 4.038314 3.725869
C -0.538411 3.099930 1.055018
C 0.208024 2.161416 4.331806
C 0.507239 4.545987 7.002657
C 0.659391 4.038314 9.097652
C -0.538411 3.099930 6.426801
C 0.208024 2.161416 9.703589
C 0.507239 4.545987 12.374440
C 0.659391 4.038314 14.469435
C -0.538411 3.099930 11.798585
C 0.208024 2.161416 15.075372
C -0.184361 6.853595 1.630873
C -0.032209 6.345922 3.725869
C -1.230011 5.407537 1.055018
C -0.483576 4.469024 4.331806
C -0.184361 6.853595 7.002657
C -0.032209 6.345922 9.097652
C -1.230011 5.407537 6.426801
C -0.483576 4.469024 9.703589
C -0.184361 6.853595 12.374440
C -0.032209 6.345922 14.469435
C -1.230011 5.407537 11.798585
C -0.483576 4.469024 15.075372
C 3.691761 2.238380 1.630873
C 3.843913 1.730706 3.725869
C 2.646110 0.792322 1.055018
C 3.392546 -0.146192 4.331806
C 3.691761 2.238380 7.002657
C 3.843913 1.730706 9.097652
C 2.646110 0.792322 6.426801
C 3.392546 -0.146192 9.703589
C 3.691761 2.238380 12.374440
C 3.843913 1.730706 14.469435
C 2.646110 0.792322 11.798585
C 3.392546 -0.146192 15.075372
C 3.000161 4.545987 1.630873
C 3.152313 4.038314 3.725869
C 1.954510 3.099930 1.055018
C 2.700946 2.161416 4.331806
C 3.000161 4.545987 7.002657
C 3.152313 4.038314 9.097652
C 1.954510 3.099930 6.426801
C 2.700946 2.161416 9.703589
C 3.000161 4.545987 12.374440
C 3.152313 4.038314 14.469435
C 1.954510 3.099930 11.798585
C 2.700946 2.161416 15.075372
C 2.308561 6.853595 1.630873
C 2.460713 6.345922 3.725869
C 1.262910 5.407537 1.055018
C 2.009346 4.469024 4.331806
C 2.308561 6.853595 7.002657
C 2.460713 6.345922 9.097652
C 1.262910 5.407537 6.426801
C 2.009346 4.469024 9.703589
C 2.308561 6.853595 12.374440
C 2.460713 6.345922 14.469435
C 1.262910 5.407537 11.798585
C 2.009346 4.469024 15.075372
C 6.184682 2.238380 1.630873
C 6.336834 1.730706 3.725869
C 5.139032 0.792322 1.055018
C 5.885467 -0.146192 4.331806
C 6.184682 2.238380 7.002657
C 6.336834 1.730706 9.097652
C 5.139032 0.792322 6.426801
C 5.885467 -0.146192 9.703589
C 6.184682 2.238380 12.374440
C 6.336834 1.730706 14.469435
C 5.139032 0.792322 11.798585
C 5.885467 -0.146192 15.075372
C 5.493082 4.545987 1.630873
C 5.645234 4.038314 3.725869
C 4.447432 3.099930 1.055018
C 5.193867 2.161416 4.331806
C 5.493082 4.545987 7.002657
C 5.645234 4.038314 9.097652
C 4.447432 3.099930 6.426801
C 5.193867 2.161416 9.703589
C 5.493082 4.545987 12.374440
C 5.645234 4.038314 14.469435
C 4.447432 3.099930 11.798585
C 5.193867 2.161416 15.075372
C 4.801482 6.853595 1.630873
C 4.953634 6.345922 3.725869
C 3.755832 5.407537 1.055018
C 4.502267 4.469024 4.331806
C 4.801482 6.853595 7.002657
C 4.953634 6.345922 9.097652
C 3.755832 5.407537 6.426801
C 4.502267 4.469024 9.703589
C 4.801482 6.853595 12.374440
C 4.953634 6.345922 14.469435
C 3.755832 5.407537 11.798585
C 4.502267 4.469024 15.075372
