108
A
C 0.987048 1.798018 1.681987
C 1.061395 1.644528 4.629505
C -0.153403 0.862527 1.487387
C 0.935347 0.080336 4.878618
C 0.987048 1.798018 8.020736
C 1.061395 1.644528 10.968255
C -0.153403 0.862527 7.826137
C 0.935347 0.080336 11.217368
C 0.987048 1.798018 14.359486
C 1.061395 1.644528 17.307004
C -0.153403 0.862527 14.164886
C 0.935347 0.080336 17.556117
C -0.075052 3.990722 1.681987
C -0.000705 3.837233 4.629505
C -1.215503 3.055231 1.487387
C -0.126753 2.273041 4.878618
C -0.075052 3.990722 8.020736
C -0.000705 3.837233 10.968255
C -1.215503 3.055231 7.826137
C -0.126753 2.273041 11.217368
C -0.075052 3.990722 14.359486
C -0.000705 3.837233 17.307004
C -1.215503 3.055231 14.164886
C -0.126753 2.273041 17.556117
C -1.137152 6.183426 1.681987
C -1.062805 6.029937 4.629505
C -2.277603 5.247935 1.487387
C -1.188853 4.465745 4.878618
C -1.137152 6.183426 8.020736
C -1.062805 6.029937 10.968255
C -2.277603 5.247935 7.826137
C -1.188853 4.465745 11.217368
C -1.137152 6.183426 14.359486
C -1.062805 6.029937 17.307004
C -2.277603 5.247935 14.164886
C -1.188853 4.465745 17.556117
C 3.464341 1.798018 1.681987
C 3.538688 1.644528 4.629505
C 2.323890 0.862527 1.487387
C 3.412640 0.080336 4.878618
C 3.464341 1.798018 8.020736
C 3.538688 1.644528 10.968255
C 2.323890 0.862527 7.826137
C 3.412640 0.080336 11.217368
C 3.464341 1.798018 14.359486
C 3.538688 1.644528 17.307004
C 2.323890 0.862527 14.164886
C 3.412640 0.080336 17.556117
C 2.402241 3.990722 1.681987
C 2.476588 3.837233 4.629505
C 1.261790 3.055231 1.487387
C 2.350540 2.273041 4.878618
C 2.402241 3.990722 8.020736
C 2.476588 3.837233 10.968255
C 1.261790 3.055231 7.826137
C 2.350540 2.273041 11.217368
C 2.402241 3.990722 14.359486
C 2.476588 3.837233 17.307004
C 1.261790 3.055231 14.164886
C 2.350540 2.273041 17.556117
C 1.340141 6.183426 1.681987
C 1.414488 6.029937 4.629505
C 0.199690 5.247935 1.487387
C 1.288440 4.465745 4.878618
C 1.340141 6.183426 8.020736
C 1.414488 6.029937 10.968255
C 0.199690 5.247935 7.826137
C 1.288440 4.465745 11.217368
C 1.340141 6.183426 14.359486
C 1.414488 6.029937 17.307004
C 0.199690 5.247935 14.164886
C 1.288440 4.465745 17.556117
C 5.941634 1.798018 1.681987
C 6.015981 1.644528 4.629505
C 4.801183 0.862527 1.487387
C 5.889933 0.080336 4.878618
C 5.941634 1.798018 8.020736
C 6.015981 1.644528 10.968255
C 4.801183 0.862527 7.826137
C 5.889933 0.080336 11.217368
C 5.941634 1.798018 14.359486
C 6.015981 1.644528 17.307004
C 4.801183 0.862527 14.164886
C 5.889933 0.080336 17.556117
C 4.879534 3.990722 1.681987
C 4.953881 3.837233 4.629505
C 3.739083 3.055231 1.487387
C 4.827833 2.273041 4.878618
C 4.879534 3.990722 8.020736
C 4.953881 3.837233 10.968255
C 3.739083 3.055231 7.826137
C 4.827833 2.273041 11.217368
C 4.879534 3.990722 14.359486
C 4.953881 3.837233 17.307004
C 3.739083 3.055231 14.164886
C 4.827833 2.273041 17.556117
C 3.817434 6.183426 1.681987
C 3.891781 6.029937 4.629505
C 2.676983 5.247935 1.487387
C 3.765733 4.465745 4.878618
C 3.817434 6.183426 8.020736
C 3.891781 6.029937 10.968255
C 2.676983 5.247935 7.826137
C 3.765733 4.465745 11.217368
C 3.817434 6.183426 14.359486
C 3.891781 6.029937 17.307004
C 2.676983 5.247935 14.164886
C 3.765733 4.465745 17.556117
