108
A
C 2.781351 1.608588 1.622549
C 2.767479 1.600565 4.931172
C 1.529782 0.884607 1.684695
C 0.319828 0.185110 5.021552
C 2.781351 1.608588 8.339901
C 2.767479 1.600565 11.648524
C 1.529782 0.884607 8.402047
C 0.319828 0.185110 11.738904
C 2.781351 1.608588 15.057252
C 2.767479 1.600565 18.365876
C 1.529782 0.884607 15.119399
C 0.319828 0.185110 18.456256
C 4.012229 3.748024 1.513339
C 3.998357 3.740001 4.821962
C 2.760660 3.024043 1.575485
C 1.550706 2.324546 4.912342
C 4.012229 3.748024 8.230691
C 3.998357 3.740001 11.539314
C 2.760660 3.024043 8.292837
C 1.550706 2.324546 11.629694
C 4.012229 3.748024 14.948043
C 3.998357 3.740001 18.256666
C 2.760660 3.024043 15.010189
C 1.550706 2.324546 18.347046
C 5.243107 5.887460 1.404129
C 5.229235 5.879437 4.712752
C 3.991538 5.163479 1.466275
C 2.781584 4.463982 4.803132
C 5.243107 5.887460 8.121481
C 5.229235 5.879437 11.430104
C 3.991538 5.163479 8.183627
C 2.781584 4.463982 11.520484
C 5.243107 5.887460 14.838833
C 5.229235 5.879437 18.147456
C 3.991538 5.163479 14.900979
C 2.781584 4.463982 18.237836
C 5.249692 1.608588 1.644391
C 5.235820 1.600565 4.953014
C 3.998123 0.884607 1.706537
C 2.788170 0.185110 5.043394
C 5.249692 1.608588 8.361743
C 5.235820 1.600565 11.670366
C 3.998123 0.884607 8.423889
C 2.788170 0.185110 11.760746
C 5.249692 1.608588 15.079094
C 5.235820 1.600565 18.387718
C 3.998123 0.884607 15.141241
C 2.788170 0.185110 18.478098
C 6.480570 3.748024 1.535181
C 6.466698 3.740001 4.843804
C 5.229001 3.024043 1.597327
C 4.019048 2.324546 4.934184
C 6.480570 3.748024 8.252533
C 6.466698 3.740001 11.561156
C 5.229001 3.024043 8.314679
C 4.019048 2.324546 11.651536
C 6.480570 3.748024 14.969885
C 6.466698 3.740001 18.278508
C 5.229001 3.024043 15.032031
C 4.019048 2.324546 18.368888
C 7.711448 5.887460 1.425971
C 7.697576 5.879437 4.734594
C 6.459879 5.163479 1.488117
C 5.249926 4.463982 4.824974
C 7.711448 5.887460 8.143323
C 7.697576 5.879437 11.451946
C 6.459879 5.163479 8.205469
C 5.249926 4.463982 11.542326
C 7.711448 5.887460 14.860675
C 7.697576 5.879437 18.169298
C 6.459879 5.163479 14.922821
C 5.249926 4.463982 18.259678
C 7.718034 1.608588 1.666233
C 7.704162 1.600565 4.974856
C 6.466465 0.884607 1.728379
C 5.256511 0.185110 5.065236
C 7.718034 1.608588 8.383585
C 7.704162 1.600565 11.692208
C 6.466465 0.884607 8.445731
C 5.256511 0.185110 11.782588
C 7.718034 1.608588 15.100936
C 7.704162 1.600565 18.409560
C 6.466465 0.884607 15.163083
C 5.256511 0.185110 18.499940
C 8.948912 3.748024 1.557023
C 8.935040 3.740001 4.865646
C 7.697343 3.024043 1.619169
C 6.487389 2.324546 4.956026
C 8.948912 3.748024 8.274375
C 8.935040 3.740001 11.582998
C 7.697343 3.024043 8.336521
C 6.487389 2.324546 11.673378
C 8.948912 3.748024 14.991727
C 8.935040 3.740001 18.300350
C 7.697343 3.024043 15.053873
C 6.487389 2.324546 18.390730
C 10.179790 5.887460 1.447813
C 10.165918 5.879437 4.756436
C 8.928221 5.163479 1.509959
C 7.718267 4.463982 4.846816
C 10.179790 5.887460 8.165165
C 10.165918 5.879437 11.473788
C 8.928221 5.163479 8.227311
C 7.718267 4.463982 11.564168
C 10.179790 5.887460 14.882517
C 10.165918 5.879437 18.191140
C 8.928221 5.163479 14.944663
C 7.718267 4.463982 18.281520
