108
A
C 2.824458 1.685786 0.427916
C 2.568302 1.532898 2.480153
C 1.284527 0.766611 1.150642
C 0.513059 0.306284 3.440680
C 2.824458 1.685786 5.837602
C 2.568302 1.532898 7.889838
C 1.284527 0.766611 6.560327
C 0.513059 0.306284 8.850365
C 2.824458 1.685786 11.247287
C 2.568302 1.532898 13.299524
C 1.284527 0.766611 11.970012
C 0.513059 0.306284 14.260050
C 3.981141 3.831576 -1.647072
C 3.724985 3.678688 0.405165
C 2.441210 2.912401 -0.924346
C 1.669742 2.452073 1.365692
C 3.981141 3.831576 3.762614
C 3.724985 3.678688 5.814851
C 2.441210 2.912401 4.485339
C 1.669742 2.452073 6.775377
C 3.981141 3.831576 9.172299
C 3.724985 3.678688 11.224536
C 2.441210 2.912401 9.895025
C 1.669742 2.452073 12.185063
C 5.137823 5.977365 -3.722060
C 4.881667 5.824478 -1.669823
C 3.597892 5.058191 -2.999334
C 2.826424 4.597863 -0.709296
C 5.137823 5.977365 1.687626
C 4.881667 5.824478 3.739863
C 3.597892 5.058191 2.410351
C 2.826424 4.597863 4.700389
C 5.137823 5.977365 7.097311
C 4.881667 5.824478 9.149548
C 3.597892 5.058191 7.820037
C 2.826424 4.597863 10.110075
C 5.262950 1.685786 0.842914
C 5.006793 1.532898 2.895151
C 3.723019 0.766611 1.565639
C 2.951551 0.306284 3.855677
C 5.262950 1.685786 6.252599
C 5.006793 1.532898 8.304836
C 3.723019 0.766611 6.975325
C 2.951551 0.306284 9.265363
C 5.262950 1.685786 11.662285
C 5.006793 1.532898 13.714521
C 3.723019 0.766611 12.385010
C 2.951551 0.306284 14.675048
C 6.419632 3.831576 -1.232074
C 6.163476 3.678688 0.820163
C 4.879701 2.912401 -0.509349
C 4.108233 2.452073 1.780689
C 6.419632 3.831576 4.177611
C 6.163476 3.678688 6.229848
C 4.879701 2.912401 4.900337
C 4.108233 2.452073 7.190375
C 6.419632 3.831576 9.587297
C 6.163476 3.678688 11.639534
C 4.879701 2.912401 10.310022
C 4.108233 2.452073 12.600060
C 7.576314 5.977365 -3.307062
C 7.320158 5.824478 -1.254825
C 6.036383 5.058191 -2.584337
C 5.264915 4.597863 -0.294299
C 7.576314 5.977365 2.102623
C 7.320158 5.824478 4.154860
C 6.036383 5.058191 2.825349
C 5.264915 4.597863 5.115387
C 7.576314 5.977365 7.512309
C 7.320158 5.824478 9.564546
C 6.036383 5.058191 8.235034
C 5.264915 4.597863 10.525072
C 7.701441 1.685786 1.257911
C 7.445285 1.532898 3.310148
C 6.161510 0.766611 1.980637
C 5.390042 0.306284 4.270675
C 7.701441 1.685786 6.667597
C 7.445285 1.532898 8.719834
C 6.161510 0.766611 7.390322
C 5.390042 0.306284 9.680360
C 7.701441 1.685786 12.077282
C 7.445285 1.532898 14.129519
C 6.161510 0.766611 12.800008
C 5.390042 0.306284 15.090046
C 8.858123 3.831576 -0.817077
C 8.601967 3.678688 1.235160
C 7.318192 2.912401 -0.094351
C 6.546724 2.452073 2.195687
C 8.858123 3.831576 4.592609
C 8.601967 3.678688 6.644846
C 7.318192 2.912401 5.315334
C 6.546724 2.452073 7.605372
C 8.858123 3.831576 10.002294
C 8.601967 3.678688 12.054531
C 7.318192 2.912401 10.725020
C 6.546724 2.452073 13.015058
C 10.014806 5.977365 -2.892064
C 9.758649 5.824478 -0.839828
C 8.474875 5.058191 -2.169339
C 7.703407 4.597863 0.120699
C 10.014806 5.977365 2.517621
C 9.758649 5.824478 4.569858
C 8.474875 5.058191 3.240346
C 7.703407 4.597863 5.530384
C 10.014806 5.977365 7.927306
C 9.758649 5.824478 9.979543
C 8.474875 5.058191 8.650032
C 7.703407 4.597863 10.940070
