108
A
C 2.844710 1.727421 -0.331774
C 2.464236 1.496382 1.279079
C 1.157646 0.702948 0.865387
C 0.612003 0.371653 2.593055
C 2.844710 1.727421 4.375646
C 2.464236 1.496382 5.986499
C 1.157646 0.702948 5.572807
C 0.612003 0.371653 7.300475
C 2.844710 1.727421 9.083066
C 2.464236 1.496382 10.693919
C 1.157646 0.702948 10.280227
C 0.612003 0.371653 12.007895
C 3.961547 3.876623 -3.462458
C 3.581072 3.645584 -1.851604
C 2.274483 2.852150 -2.265297
C 1.728839 2.520855 -0.537628
C 3.961547 3.876623 1.244962
C 3.581072 3.645584 2.855816
C 2.274483 2.852150 2.442124
C 1.728839 2.520855 4.169792
C 3.961547 3.876623 5.952382
C 3.581072 3.645584 7.563236
C 2.274483 2.852150 7.149544
C 1.728839 2.520855 8.877212
C 5.078383 6.025825 -6.593141
C 4.697909 5.794786 -4.982288
C 3.391319 5.001352 -5.395980
C 2.845676 4.670057 -3.668312
C 5.078383 6.025825 -1.885721
C 4.697909 5.794786 -0.274868
C 3.391319 5.001352 -0.688560
C 2.845676 4.670057 1.039108
C 5.078383 6.025825 2.821699
C 4.697909 5.794786 4.432553
C 3.391319 5.001352 4.018860
C 2.845676 4.670057 5.746528
C 5.267170 1.727421 0.294362
C 4.886696 1.496382 1.905216
C 3.580106 0.702948 1.491524
C 3.034463 0.371653 3.219192
C 5.267170 1.727421 5.001782
C 4.886696 1.496382 6.612636
C 3.580106 0.702948 6.198944
C 3.034463 0.371653 7.926612
C 5.267170 1.727421 9.709203
C 4.886696 1.496382 11.320056
C 3.580106 0.702948 10.906364
C 3.034463 0.371653 12.634032
C 6.384007 3.876623 -2.836321
C 6.003533 3.645584 -1.225468
C 4.696943 2.852150 -1.639160
C 4.151300 2.520855 0.088508
C 6.384007 3.876623 1.871099
C 6.003533 3.645584 3.481953
C 4.696943 2.852150 3.068260
C 4.151300 2.520855 4.795928
C 6.384007 3.876623 6.578519
C 6.003533 3.645584 8.189373
C 4.696943 2.852150 7.775680
C 4.151300 2.520855 9.503349
C 7.500844 6.025825 -5.967005
C 7.120369 5.794786 -4.356151
C 5.813780 5.001352 -4.769843
C 5.268136 4.670057 -3.042175
C 7.500844 6.025825 -1.259584
C 7.120369 5.794786 0.351269
C 5.813780 5.001352 -0.062423
C 5.268136 4.670057 1.665245
C 7.500844 6.025825 3.447836
C 7.120369 5.794786 5.058689
C 5.813780 5.001352 4.644997
C 5.268136 4.670057 6.372665
C 7.689631 1.727421 0.920499
C 7.309157 1.496382 2.531353
C 6.002567 0.702948 2.117660
C 5.456924 0.371653 3.845328
C 7.689631 1.727421 5.627919
C 7.309157 1.496382 7.238773
C 6.002567 0.702948 6.825080
C 5.456924 0.371653 8.552749
C 7.689631 1.727421 10.335339
C 7.309157 1.496382 11.946193
C 6.002567 0.702948 11.532501
C 5.456924 0.371653 13.260169
C 8.806468 3.876623 -2.210184
C 8.425993 3.645584 -0.599331
C 7.119403 2.852150 -1.013023
C 6.573760 2.520855 0.714645
C 8.806468 3.876623 2.497236
C 8.425993 3.645584 4.108089
C 7.119403 2.852150 3.694397
C 6.573760 2.520855 5.422065
C 8.806468 3.876623 7.204656
C 8.425993 3.645584 8.815509
C 7.119403 2.852150 8.401817
C 6.573760 2.520855 10.129485
C 9.923304 6.025825 -5.340868
C 9.542830 5.794786 -3.730014
C 8.236240 5.001352 -4.143707
C 7.690597 4.670057 -2.416039
C 9.923304 6.025825 -0.633448
C 9.542830 5.794786 0.977406
C 8.236240 5.001352 0.563714
C 7.690597 4.670057 2.291382
C 9.923304 6.025825 4.073972
C 9.542830 5.794786 5.684826
C 8.236240 5.001352 5.271134
C 7.690597 4.670057 6.998802
