108
A
C 2.807744 1.654283 0.949169
C 2.648600 1.560518 3.445018
C 1.383033 0.814770 1.367765
C 0.435748 0.256830 4.084340
C 2.807744 1.654283 6.891607
C 2.648600 1.560518 9.387457
C 1.383033 0.814770 7.310203
C 0.435748 0.256830 10.026779
C 2.807744 1.654283 12.834045
C 2.648600 1.560518 15.329895
C 1.383033 0.814770 13.252642
C 0.435748 0.256830 15.969217
C 3.994654 3.797484 -0.324947
C 3.835511 3.703719 2.170903
C 2.569944 2.957971 0.093650
C 1.622658 2.400032 2.810225
C 3.994654 3.797484 5.617492
C 3.835511 3.703719 8.113342
C 2.569944 2.957971 6.036088
C 1.622658 2.400032 8.752663
C 3.994654 3.797484 11.559930
C 3.835511 3.703719 14.055780
C 2.569944 2.957971 11.978527
C 1.622658 2.400032 14.695102
C 5.181564 5.940685 -1.599062
C 5.022421 5.846920 0.896788
C 3.756854 5.101172 -1.180466
C 2.809569 4.543233 1.536109
C 5.181564 5.940685 4.343376
C 5.022421 5.846920 6.839226
C 3.756854 5.101172 4.761973
C 2.809569 4.543233 7.478548
C 5.181564 5.940685 10.285815
C 5.022421 5.846920 12.781665
C 3.756854 5.101172 10.704411
C 2.809569 4.543233 13.420986
C 5.258396 1.654283 1.203992
C 5.099253 1.560518 3.699842
C 3.833686 0.814770 1.622588
C 2.886401 0.256830 4.339163
C 5.258396 1.654283 7.146430
C 5.099253 1.560518 9.642280
C 3.833686 0.814770 7.565027
C 2.886401 0.256830 10.281602
C 5.258396 1.654283 13.088869
C 5.099253 1.560518 15.584718
C 3.833686 0.814770 13.507465
C 2.886401 0.256830 16.224040
C 6.445306 3.797484 -0.070124
C 6.286163 3.703719 2.425726
C 5.020596 2.957971 0.348473
C 4.073311 2.400032 3.065048
C 6.445306 3.797484 5.872315
C 6.286163 3.703719 8.368165
C 5.020596 2.957971 6.290911
C 4.073311 2.400032 9.007486
C 6.445306 3.797484 11.814753
C 6.286163 3.703719 14.310603
C 5.020596 2.957971 12.233350
C 4.073311 2.400032 14.949925
C 7.632217 5.940685 -1.344239
C 7.473073 5.846920 1.151611
C 6.207506 5.101172 -0.925643
C 5.260221 4.543233 1.790933
C 7.632217 5.940685 4.598199
C 7.473073 5.846920 7.094049
C 6.207506 5.101172 5.016796
C 5.260221 4.543233 7.733371
C 7.632217 5.940685 10.540638
C 7.473073 5.846920 13.036488
C 6.207506 5.101172 10.959234
C 5.260221 4.543233 13.675809
C 7.709049 1.654283 1.458815
C 7.549905 1.560518 3.954665
C 6.284338 0.814770 1.877411
C 5.337053 0.256830 4.593986
C 7.709049 1.654283 7.401253
C 7.549905 1.560518 9.897103
C 6.284338 0.814770 7.819850
C 5.337053 0.256830 10.536425
C 7.709049 1.654283 13.343692
C 7.549905 1.560518 15.839541
C 6.284338 0.814770 13.762288
C 5.337053 0.256830 16.478863
C 8.895959 3.797484 0.184699
C 8.736816 3.703719 2.680549
C 7.471249 2.957971 0.603296
C 6.523963 2.400032 3.319871
C 8.895959 3.797484 6.127138
C 8.736816 3.703719 8.622988
C 7.471249 2.957971 6.545734
C 6.523963 2.400032 9.262309
C 8.895959 3.797484 12.069576
C 8.736816 3.703719 14.565426
C 7.471249 2.957971 12.488173
C 6.523963 2.400032 15.204748
C 10.082869 5.940685 -1.089416
C 9.923726 5.846920 1.406434
C 8.658159 5.101172 -0.670820
C 7.710874 4.543233 2.045756
C 10.082869 5.940685 4.853022
C 9.923726 5.846920 7.348872
C 8.658159 5.101172 5.271619
C 7.710874 4.543233 7.988194
C 10.082869 5.940685 10.795461
C 9.923726 5.846920 13.291311
C 8.658159 5.101172 11.214057
C 7.710874 4.543233 13.930632
