108
A
C 1.798824 3.048919 1.381300
C 1.833651 1.874335 2.377746
C 0.585296 0.649775 0.498787
C 0.671965 -0.574801 3.262514
C 1.798824 3.048919 5.141473
C 1.833651 1.874335 6.137919
C 0.585296 0.649775 4.258960
C 0.671965 -0.574801 7.022687
C 1.798824 3.048919 8.901646
C 1.833651 1.874335 9.898092
C 0.585296 0.649775 8.019133
C 0.671965 -0.574801 10.782861
C 1.724724 5.548032 1.381300
C 1.759551 4.373449 2.377746
C 0.511196 3.148888 0.498787
C 0.597865 1.924312 3.262514
C 1.724724 5.548032 5.141473
C 1.759551 4.373449 6.137919
C 0.511196 3.148888 4.258960
C 0.597865 1.924312 7.022687
C 1.724724 5.548032 8.901646
C 1.759551 4.373449 9.898092
C 0.511196 3.148888 8.019133
C 0.597865 1.924312 10.782861
C 1.650624 8.047146 1.381300
C 1.685451 6.872562 2.377746
C 0.437096 5.648002 0.498787
C 0.523765 4.423426 3.262514
C 1.650624 8.047146 5.141473
C 1.685451 6.872562 6.137919
C 0.437096 5.648002 4.258960
C 0.523765 4.423426 7.022687
C 1.650624 8.047146 8.901646
C 1.685451 6.872562 9.898092
C 0.437096 5.648002 8.019133
C 0.523765 4.423426 10.782861
C 4.317793 3.048919 1.381300
C 4.352620 1.874335 2.377746
C 3.104265 0.649775 0.498787
C 3.190934 -0.574801 3.262514
C 4.317793 3.048919 5.141473
C 4.352620 1.874335 6.137919
C 3.104265 0.649775 4.258960
C 3.190934 -0.574801 7.022687
C 4.317793 3.048919 8.901646
C 4.352620 1.874335 9.898092
C 3.104265 0.649775 8.019133
C 3.190934 -0.574801 10.782861
C 4.243693 5.548032 1.381300
C 4.278520 4.373449 2.377746
C 3.030165 3.148888 0.498787
C 3.116834 1.924312 3.262514
C 4.243693 5.548032 5.141473
C 4.278520 4.373449 6.137919
C 3.030165 3.148888 4.258960
C 3.116834 1.924312 7.022687
C 4.243693 5.548032 8.901646
C 4.278520 4.373449 9.898092
C 3.030165 3.148888 8.019133
C 3.116834 1.924312 10.782861
C 4.169593 8.047146 1.381300
C 4.204420 6.872562 2.377746
C 2.956065 5.648002 0.498787
C 3.042734 4.423426 3.262514
C 4.169593 8.047146 5.141473
C 4.204420 6.872562 6.137919
C 2.956065 5.648002 4.258960
C 3.042734 4.423426 7.022687
C 4.169593 8.047146 8.901646
C 4.204420 6.872562 9.898092
C 2.956065 5.648002 8.019133
C 3.042734 4.423426 10.782861
C 6.836762 3.048919 1.381300
C 6.871589 1.874335 2.377746
C 5.623234 0.649775 0.498787
C 5.709902 -0.574801 3.262514
C 6.836762 3.048919 5.141473
C 6.871589 1.874335 6.137919
C 5.623234 0.649775 4.258960
C 5.709902 -0.574801 7.022687
C 6.836762 3.048919 8.901646
C 6.871589 1.874335 9.898092
C 5.623234 0.649775 8.019133
C 5.709902 -0.574801 10.782861
C 6.762662 5.548032 1.381300
C 6.797489 4.373449 2.377746
C 5.549134 3.148888 0.498787
C 5.635802 1.924312 3.262514
C 6.762662 5.548032 5.141473
C 6.797489 4.373449 6.137919
C 5.549134 3.148888 4.258960
C 5.635802 1.924312 7.022687
C 6.762662 5.548032 8.901646
C 6.797489 4.373449 9.898092
C 5.549134 3.148888 8.019133
C 5.635802 1.924312 10.782861
C 6.688562 8.047146 1.381300
C 6.723389 6.872562 2.377746
C 5.475034 5.648002 0.498787
C 5.561702 4.423426 3.262514
C 6.688562 8.047146 5.141473
C 6.723389 6.872562 6.137919
C 5.475034 5.648002 4.258960
C 5.561702 4.423426 7.022687
C 6.688562 8.047146 8.901646
C 6.723389 6.872562 9.898092
C 5.475034 5.648002 8.019133
C 5.561702 4.423426 10.782861
