108
A
C 2.822248 1.681486 0.501793
C 2.579183 1.536669 2.608997
C 1.297846 0.773185 1.180213
C 0.502631 0.299533 3.528419
C 2.822248 1.681486 5.984127
C 2.579183 1.536669 8.091331
C 1.297846 0.773185 6.662546
C 0.502631 0.299533 9.010753
C 2.822248 1.681486 11.466461
C 2.579183 1.536669 13.573664
C 1.297846 0.773185 12.144880
C 0.502631 0.299533 14.493086
C 3.983052 3.826923 -1.463985
C 3.739988 3.682106 0.643219
C 2.458650 2.918622 -0.785565
C 1.663436 2.444970 1.562641
C 3.983052 3.826923 4.018349
C 3.739988 3.682106 6.125553
C 2.458650 2.918622 4.696768
C 1.663436 2.444970 7.044975
C 3.983052 3.826923 9.500683
C 3.739988 3.682106 11.607886
C 2.458650 2.918622 10.179102
C 1.663436 2.444970 12.527308
C 5.143856 5.972359 -3.429763
C 4.900792 5.827542 -1.322559
C 3.619454 5.064059 -2.751343
C 2.824240 4.590406 -0.403137
C 5.143856 5.972359 2.052571
C 4.900792 5.827542 4.159775
C 3.619454 5.064059 2.730990
C 2.824240 4.590406 5.079197
C 5.143856 5.972359 7.534905
C 4.900792 5.827542 9.642108
C 3.619454 5.064059 8.213324
C 2.824240 4.590406 10.561530
C 5.262397 1.681486 0.894949
C 5.019333 1.536669 3.002153
C 3.737995 0.773185 1.573368
C 2.942781 0.299533 3.921575
C 5.262397 1.681486 6.377283
C 5.019333 1.536669 8.484486
C 3.737995 0.773185 7.055702
C 2.942781 0.299533 9.403908
C 5.262397 1.681486 11.859616
C 5.019333 1.536669 13.966820
C 3.737995 0.773185 12.538035
C 2.942781 0.299533 14.886242
C 6.423202 3.826923 -1.070829
C 6.180137 3.682106 1.036375
C 4.898800 2.918622 -0.392410
C 4.103585 2.444970 1.955797
C 6.423202 3.826923 4.411505
C 6.180137 3.682106 6.518708
C 4.898800 2.918622 5.089924
C 4.103585 2.444970 7.438130
C 6.423202 3.826923 9.893838
C 6.180137 3.682106 12.001042
C 4.898800 2.918622 10.572257
C 4.103585 2.444970 12.920464
C 7.584006 5.972359 -3.036607
C 7.340942 5.827542 -0.929403
C 6.059604 5.064059 -2.358188
C 5.264390 4.590406 -0.009981
C 7.584006 5.972359 2.445727
C 7.340942 5.827542 4.552930
C 6.059604 5.064059 3.124146
C 5.264390 4.590406 5.472352
C 7.584006 5.972359 7.928060
C 7.340942 5.827542 10.035264
C 6.059604 5.064059 8.606479
C 5.264390 4.590406 10.954686
C 7.702547 1.681486 1.288105
C 7.459482 1.536669 3.395308
C 6.178145 0.773185 1.966524
C 5.382931 0.299533 4.314730
C 7.702547 1.681486 6.770438
C 7.459482 1.536669 8.877642
C 6.178145 0.773185 7.448857
C 5.382931 0.299533 9.797064
C 7.702547 1.681486 12.252772
C 7.459482 1.536669 14.359976
C 6.178145 0.773185 12.931191
C 5.382931 0.299533 15.279398
C 8.863351 3.826923 -0.677673
C 8.620287 3.682106 1.429530
C 7.338949 2.918622 0.000746
C 6.543735 2.444970 2.348952
C 8.863351 3.826923 4.804660
C 8.620287 3.682106 6.911864
C 7.338949 2.918622 5.483079
C 6.543735 2.444970 7.831286
C 8.863351 3.826923 10.286994
C 8.620287 3.682106 12.394198
C 7.338949 2.918622 10.965413
C 6.543735 2.444970 13.313620
C 10.024156 5.972359 -2.643451
C 9.781091 5.827542 -0.536248
C 8.499754 5.064059 -1.965032
C 7.704539 4.590406 0.383174
C 10.024156 5.972359 2.838882
C 9.781091 5.827542 4.946086
C 8.499754 5.064059 3.517301
C 7.704539 4.590406 5.865508
C 10.024156 5.972359 8.321216
C 9.781091 5.827542 10.428420
C 8.499754 5.064059 8.999635
C 7.704539 4.590406 11.347842
