108
A
C 2.848647 1.736051 -0.499258
C 2.442957 1.488811 1.040633
C 1.131816 0.689751 0.806504
C 0.632052 0.385203 2.417803
C 2.848647 1.736051 4.062866
C 2.442957 1.488811 5.602757
C 1.131816 0.689751 5.368628
C 0.632052 0.385203 6.979927
C 2.848647 1.736051 8.624990
C 2.442957 1.488811 10.164881
C 1.131816 0.689751 9.930752
C 0.632052 0.385203 11.542051
C 3.957240 3.885959 -3.848361
C 3.551550 3.638719 -2.308470
C 2.240409 2.839659 -2.542599
C 1.740645 2.535111 -0.931300
C 3.957240 3.885959 0.713763
C 3.551550 3.638719 2.253654
C 2.240409 2.839659 2.019525
C 1.740645 2.535111 3.630824
C 3.957240 3.885959 5.275887
C 3.551550 3.638719 6.815778
C 2.240409 2.839659 6.581649
C 1.740645 2.535111 8.192948
C 5.065832 6.035867 -7.197464
C 4.660143 5.788627 -5.657573
C 3.349001 4.989567 -5.891702
C 2.849237 4.685019 -4.280403
C 5.065832 6.035867 -2.635340
C 4.660143 5.788627 -1.095450
C 3.349001 4.989567 -1.329578
C 2.849237 4.685019 0.281721
C 5.065832 6.035867 1.926783
C 4.660143 5.788627 3.466674
C 3.349001 4.989567 3.232545
C 2.849237 4.685019 4.843845
C 5.267791 1.736051 0.170563
C 4.862101 1.488811 1.710454
C 3.550960 0.689751 1.476325
C 3.051196 0.385203 3.087624
C 5.267791 1.736051 4.732687
C 4.862101 1.488811 6.272578
C 3.550960 0.689751 6.038449
C 3.051196 0.385203 7.649748
C 5.267791 1.736051 9.294810
C 4.862101 1.488811 10.834701
C 3.550960 0.689751 10.600573
C 3.051196 0.385203 12.211872
C 6.376383 3.885959 -3.178540
C 5.970694 3.638719 -1.638650
C 4.659552 2.839659 -1.872778
C 4.159789 2.535111 -0.261479
C 6.376383 3.885959 1.383583
C 5.970694 3.638719 2.923474
C 4.659552 2.839659 2.689345
C 4.159789 2.535111 4.300645
C 6.376383 3.885959 5.945707
C 5.970694 3.638719 7.485598
C 4.659552 2.839659 7.251469
C 4.159789 2.535111 8.862768
C 7.484976 6.035867 -6.527644
C 7.079286 5.788627 -4.987753
C 5.768145 4.989567 -5.221882
C 5.268381 4.685019 -3.610583
C 7.484976 6.035867 -1.965520
C 7.079286 5.788627 -0.425629
C 5.768145 4.989567 -0.659758
C 5.268381 4.685019 0.951541
C 7.484976 6.035867 2.596604
C 7.079286 5.788627 4.136495
C 5.768145 4.989567 3.902366
C 5.268381 4.685019 5.513665
C 7.686935 1.736051 0.840383
C 7.281245 1.488811 2.380274
C 5.970103 0.689751 2.146145
C 5.470340 0.385203 3.757445
C 7.686935 1.736051 5.402507
C 7.281245 1.488811 6.942398
C 5.970103 0.689751 6.708269
C 5.470340 0.385203 8.319568
C 7.686935 1.736051 9.964631
C 7.281245 1.488811 11.504522
C 5.970103 0.689751 11.270393
C 5.470340 0.385203 12.881692
C 8.795527 3.885959 -2.508720
C 8.389838 3.638719 -0.968829
C 7.078696 2.839659 -1.202958
C 6.578932 2.535111 0.408341
C 8.795527 3.885959 2.053404
C 8.389838 3.638719 3.593295
C 7.078696 2.839659 3.359166
C 6.578932 2.535111 4.970465
C 8.795527 3.885959 6.615528
C 8.389838 3.638719 8.155419
C 7.078696 2.839659 7.921290
C 6.578932 2.535111 9.532589
C 9.904120 6.035867 -5.857823
C 9.498430 5.788627 -4.317932
C 8.187289 4.989567 -4.552061
C 7.687525 4.685019 -2.940762
C 9.904120 6.035867 -1.295699
C 9.498430 5.788627 0.244192
C 8.187289 4.989567 0.010063
C 7.687525 4.685019 1.621362
C 9.904120 6.035867 3.266425
C 9.498430 5.788627 4.806316
C 8.187289 4.989567 4.572187
C 7.687525 4.685019 6.183486
