108
A
C 2.789864 1.622852 1.422914
C 2.730064 1.588067 4.456219
C 1.483481 0.862810 1.585513
C 0.356495 0.207496 4.728549
C 2.789864 1.622852 7.898106
C 2.730064 1.588067 10.931410
C 1.483481 0.862810 8.060704
C 0.356495 0.207496 11.203740
C 2.789864 1.622852 14.373297
C 2.730064 1.588067 17.406601
C 1.483481 0.862810 14.535895
C 0.356495 0.207496 17.678932
C 4.007002 3.763464 0.949672
C 3.947202 3.728679 3.982976
C 2.700620 3.003423 1.112270
C 1.573633 2.348108 4.255306
C 4.007002 3.763464 7.424863
C 3.947202 3.728679 10.458167
C 2.700620 3.003423 7.587461
C 1.573633 2.348108 10.730497
C 4.007002 3.763464 13.900054
C 3.947202 3.728679 16.933359
C 2.700620 3.003423 14.062653
C 1.573633 2.348108 17.205689
C 5.224140 5.904077 0.476429
C 5.164340 5.869292 3.509733
C 3.917758 5.144035 0.639027
C 2.790771 4.488721 3.782063
C 5.224140 5.904077 6.951620
C 5.164340 5.869292 9.984924
C 3.917758 5.144035 7.114218
C 2.790771 4.488721 10.257254
C 5.224140 5.904077 13.426812
C 5.164340 5.869292 16.460116
C 3.917758 5.144035 13.589410
C 2.790771 4.488721 16.732446
C 5.252677 1.622852 1.517563
C 5.192878 1.588067 4.550867
C 3.946295 0.862810 1.680161
C 2.819308 0.207496 4.823197
C 5.252677 1.622852 7.992754
C 5.192878 1.588067 11.026059
C 3.946295 0.862810 8.155353
C 2.819308 0.207496 11.298389
C 5.252677 1.622852 14.467946
C 5.192878 1.588067 17.501250
C 3.946295 0.862810 14.630544
C 2.819308 0.207496 17.773580
C 6.469815 3.763464 1.044320
C 6.410016 3.728679 4.077624
C 5.163433 3.003423 1.206918
C 4.036446 2.348108 4.349954
C 6.469815 3.763464 7.519512
C 6.410016 3.728679 10.552816
C 5.163433 3.003423 7.682110
C 4.036446 2.348108 10.825146
C 6.469815 3.763464 13.994703
C 6.410016 3.728679 17.028007
C 5.163433 3.003423 14.157301
C 4.036446 2.348108 17.300337
C 7.686953 5.904077 0.571077
C 7.627154 5.869292 3.604381
C 6.380571 5.144035 0.733676
C 5.253584 4.488721 3.876712
C 7.686953 5.904077 7.046269
C 7.627154 5.869292 10.079573
C 6.380571 5.144035 7.208867
C 5.253584 4.488721 10.351903
C 7.686953 5.904077 13.521460
C 7.627154 5.869292 16.554764
C 6.380571 5.144035 13.684058
C 5.253584 4.488721 16.827094
C 7.715491 1.622852 1.612212
C 7.655692 1.588067 4.645516
C 6.409109 0.862810 1.774810
C 5.282122 0.207496 4.917846
C 7.715491 1.622852 8.087403
C 7.655692 1.588067 11.120707
C 6.409109 0.862810 8.250001
C 5.282122 0.207496 11.393037
C 7.715491 1.622852 14.562594
C 7.655692 1.588067 17.595899
C 6.409109 0.862810 14.725193
C 5.282122 0.207496 17.868229
C 8.932629 3.763464 1.138969
C 8.872830 3.728679 4.172273
C 7.626247 3.003423 1.301567
C 6.499260 2.348108 4.444603
C 8.932629 3.763464 7.614160
C 8.872830 3.728679 10.647464
C 7.626247 3.003423 7.776758
C 6.499260 2.348108 10.919794
C 8.932629 3.763464 14.089352
C 8.872830 3.728679 17.122656
C 7.626247 3.003423 14.251950
C 6.499260 2.348108 17.394986
C 10.149767 5.904077 0.665726
C 10.089968 5.869292 3.699030
C 8.843385 5.144035 0.828324
C 7.716398 4.488721 3.971360
C 10.149767 5.904077 7.140917
C 10.089968 5.869292 10.174221
C 8.843385 5.144035 7.303515
C 7.716398 4.488721 10.446552
C 10.149767 5.904077 13.616109
C 10.089968 5.869292 16.649413
C 8.843385 5.144035 13.778707
C 7.716398 4.488721 16.921743
