108
A
C 2.835882 1.708742 0.018985
C 2.510636 1.512767 1.807535
C 1.214107 0.731512 0.993126
C 0.568066 0.342324 2.972907
C 2.835882 1.708742 5.041213
C 2.510636 1.512767 6.829764
C 1.214107 0.731512 6.015354
C 0.568066 0.342324 7.995136
C 2.835882 1.708742 10.063442
C 2.510636 1.512767 11.851993
C 1.214107 0.731512 11.037583
C 0.568066 0.342324 13.017364
C 3.970581 3.856414 -2.638456
C 3.645334 3.660439 -0.849905
C 2.348805 2.879185 -1.664315
C 1.702765 2.489996 0.315466
C 3.970581 3.856414 2.383773
C 3.645334 3.660439 4.172324
C 2.348805 2.879185 3.357914
C 1.702765 2.489996 5.337695
C 3.970581 3.856414 7.406001
C 3.645334 3.660439 9.194552
C 2.348805 2.879185 8.380142
C 1.702765 2.489996 10.359924
C 5.105279 6.004086 -5.295897
C 4.780033 5.808111 -3.507346
C 3.483503 5.026857 -4.321756
C 2.837463 4.637669 -2.341974
C 5.105279 6.004086 -0.273668
C 4.780033 5.808111 1.514883
C 3.483503 5.026857 0.700473
C 2.837463 4.637669 2.680254
C 5.105279 6.004086 4.748561
C 4.780033 5.808111 6.537112
C 3.483503 5.026857 5.722702
C 2.837463 4.637669 7.702483
C 5.265529 1.708742 0.550473
C 4.940282 1.512767 2.339024
C 3.643753 0.731512 1.524614
C 2.997713 0.342324 3.504395
C 5.265529 1.708742 5.572701
C 4.940282 1.512767 7.361252
C 3.643753 0.731512 6.546842
C 2.997713 0.342324 8.526624
C 5.265529 1.708742 10.594930
C 4.940282 1.512767 12.383481
C 3.643753 0.731512 11.569071
C 2.997713 0.342324 13.548852
C 6.400227 3.856414 -2.106968
C 6.074981 3.660439 -0.318417
C 4.778452 2.879185 -1.132827
C 4.132411 2.489996 0.846954
C 6.400227 3.856414 2.915261
C 6.074981 3.660439 4.703812
C 4.778452 2.879185 3.889402
C 4.132411 2.489996 5.869183
C 6.400227 3.856414 7.937490
C 6.074981 3.660439 9.726040
C 4.778452 2.879185 8.911631
C 4.132411 2.489996 10.891412
C 7.534926 6.004086 -4.764408
C 7.209679 5.808111 -2.975858
C 5.913150 5.026857 -3.790267
C 5.267110 4.637669 -1.810486
C 7.534926 6.004086 0.257820
C 7.209679 5.808111 2.046371
C 5.913150 5.026857 1.231961
C 5.267110 4.637669 3.211743
C 7.534926 6.004086 5.280049
C 7.209679 5.808111 7.068600
C 5.913150 5.026857 6.254190
C 5.267110 4.637669 8.233971
C 7.695175 1.708742 1.081961
C 7.369929 1.512767 2.870512
C 6.073400 0.731512 2.056102
C 5.427359 0.342324 4.035883
C 7.695175 1.708742 6.104190
C 7.369929 1.512767 7.892740
C 6.073400 0.731512 7.078331
C 5.427359 0.342324 9.058112
C 7.695175 1.708742 11.126418
C 7.369929 1.512767 12.914969
C 6.073400 0.731512 12.100559
C 5.427359 0.342324 14.080341
C 8.829874 3.856414 -1.575480
C 8.504627 3.660439 0.213071
C 7.208098 2.879185 -0.601339
C 6.562058 2.489996 1.378443
C 8.829874 3.856414 3.446749
C 8.504627 3.660439 5.235300
C 7.208098 2.879185 4.420890
C 6.562058 2.489996 6.400671
C 8.829874 3.856414 8.468978
C 8.504627 3.660439 10.257528
C 7.208098 2.879185 9.443119
C 6.562058 2.489996 11.422900
C 9.964572 6.004086 -4.232920
C 9.639326 5.808111 -2.444370
C 8.342797 5.026857 -3.258779
C 7.696756 4.637669 -1.278998
C 9.964572 6.004086 0.789308
C 9.639326 5.808111 2.577859
C 8.342797 5.026857 1.763449
C 7.696756 4.637669 3.743231
C 9.964572 6.004086 5.811537
C 9.639326 5.808111 7.600088
C 8.342797 5.026857 6.785678
C 7.696756 4.637669 8.765459
