108
A
C 2.779619 1.605737 1.661298
C 2.774990 1.603063 5.027312
C 1.539090 0.888964 1.704547
C 0.312447 0.180636 5.080166
C 2.779619 1.605737 8.427082
C 2.774990 1.603063 11.793096
C 1.539090 0.888964 8.470331
C 0.312447 0.180636 11.845950
C 2.779619 1.605737 15.192866
C 2.774990 1.603063 18.558880
C 1.539090 0.888964 15.236115
C 0.312447 0.180636 18.611734
C 4.013245 3.744938 1.624894
C 4.008617 3.742264 4.990908
C 2.772716 3.028164 1.668144
C 1.546073 2.319837 5.043763
C 4.013245 3.744938 8.390678
C 4.008617 3.742264 11.756692
C 2.772716 3.028164 8.433928
C 1.546073 2.319837 11.809547
C 4.013245 3.744938 15.156462
C 4.008617 3.742264 18.522476
C 2.772716 3.028164 15.199712
C 1.546073 2.319837 18.575331
C 5.246871 5.884138 1.588491
C 5.242243 5.881464 4.954505
C 4.006342 5.167365 1.631740
C 2.779699 4.459037 5.007360
C 5.246871 5.884138 8.354275
C 5.242243 5.881464 11.720289
C 4.006342 5.167365 8.397524
C 2.779699 4.459037 11.773144
C 5.246871 5.884138 15.120059
C 5.242243 5.881464 18.486073
C 4.006342 5.167365 15.163308
C 2.779699 4.459037 18.538928
C 5.249067 1.605737 1.668578
C 5.244438 1.603063 5.034592
C 4.008537 0.888964 1.711828
C 2.781894 0.180636 5.087447
C 5.249067 1.605737 8.434362
C 5.244438 1.603063 11.800376
C 4.008537 0.888964 8.477612
C 2.781894 0.180636 11.853231
C 5.249067 1.605737 15.200146
C 5.244438 1.603063 18.566160
C 4.008537 0.888964 15.243396
C 2.781894 0.180636 18.619015
C 6.482693 3.744938 1.632175
C 6.478064 3.742264 4.998189
C 5.242163 3.028164 1.675424
C 4.015520 2.319837 5.051044
C 6.482693 3.744938 8.397959
C 6.478064 3.742264 11.763973
C 5.242163 3.028164 8.441208
C 4.015520 2.319837 11.816828
C 6.482693 3.744938 15.163743
C 6.478064 3.742264 18.529757
C 5.242163 3.028164 15.206992
C 4.015520 2.319837 18.582611
C 7.716319 5.884138 1.595772
C 7.711690 5.881464 4.961786
C 6.475789 5.167365 1.639021
C 5.249146 4.459037 5.014640
C 7.716319 5.884138 8.361556
C 7.711690 5.881464 11.727570
C 6.475789 5.167365 8.404805
C 5.249146 4.459037 11.780424
C 7.716319 5.884138 15.127340
C 7.711690 5.881464 18.493354
C 6.475789 5.167365 15.170589
C 5.249146 4.459037 18.546208
C 7.718514 1.605737 1.675859
C 7.713885 1.603063 5.041873
C 6.477984 0.888964 1.719108
C 5.251341 0.180636 5.094728
C 7.718514 1.605737 8.441643
C 7.713885 1.603063 11.807657
C 6.477984 0.888964 8.484892
C 5.251341 0.180636 11.860511
C 7.718514 1.605737 15.207427
C 7.713885 1.603063 18.573441
C 6.477984 0.888964 15.250676
C 5.251341 0.180636 18.626295
C 8.952140 3.744938 1.639456
C 8.947511 3.742264 5.005470
C 7.711610 3.028164 1.682705
C 6.484967 2.319837 5.058324
C 8.952140 3.744938 8.405240
C 8.947511 3.742264 11.771254
C 7.711610 3.028164 8.448489
C 6.484967 2.319837 11.824108
C 8.952140 3.744938 15.171024
C 8.947511 3.742264 18.537038
C 7.711610 3.028164 15.214273
C 6.484967 2.319837 18.589892
C 10.185766 5.884138 1.603052
C 10.181137 5.881464 4.969066
C 8.945236 5.167365 1.646302
C 7.718593 4.459037 5.021921
C 10.185766 5.884138 8.368836
C 10.181137 5.881464 11.734850
C 8.945236 5.167365 8.412086
C 7.718593 4.459037 11.787705
C 10.185766 5.884138 15.134620
C 10.181137 5.881464 18.500634
C 8.945236 5.167365 15.177870
C 7.718593 4.459037 18.553489
