108
A
C 2.837955 1.713050 -0.060487
C 2.499892 1.508988 1.684148
C 1.201017 0.724924 0.963628
C 0.578265 0.349088 2.885232
C 2.837955 1.713050 4.889093
C 2.499892 1.508988 6.633729
C 1.201017 0.724924 5.913209
C 0.578265 0.349088 7.834812
C 2.837955 1.713050 9.838674
C 2.499892 1.508988 11.583309
C 1.201017 0.724924 10.862789
C 0.578265 0.349088 12.784393
C 3.968532 3.861075 -2.827138
C 3.630468 3.657013 -1.082503
C 2.331593 2.872949 -1.803022
C 1.708842 2.497114 0.118581
C 3.968532 3.861075 2.122443
C 3.630468 3.657013 3.867078
C 2.331593 2.872949 3.146558
C 1.708842 2.497114 5.068162
C 3.968532 3.861075 7.072023
C 3.630468 3.657013 8.816659
C 2.331593 2.872949 8.096139
C 1.708842 2.497114 10.017742
C 5.099108 6.009101 -5.593788
C 4.761045 5.805038 -3.849153
C 3.462170 5.020975 -4.569673
C 2.839418 4.645139 -2.648069
C 5.099108 6.009101 -0.644208
C 4.761045 5.805038 1.100428
C 3.462170 5.020975 0.379908
C 2.839418 4.645139 2.301511
C 5.099108 6.009101 4.305373
C 4.761045 5.805038 6.050008
C 3.462170 5.020975 5.329488
C 2.839418 4.645139 7.251092
C 5.265944 1.713050 0.492843
C 4.927880 1.508988 2.237478
C 3.629005 0.724924 1.516958
C 3.006254 0.349088 3.438562
C 5.265944 1.713050 5.442423
C 4.927880 1.508988 7.187059
C 3.629005 0.724924 6.466539
C 3.006254 0.349088 8.388142
C 5.265944 1.713050 10.392004
C 4.927880 1.508988 12.136639
C 3.629005 0.724924 11.416119
C 3.006254 0.349088 13.337723
C 6.396520 3.861075 -2.273808
C 6.058457 3.657013 -0.529172
C 4.759582 2.872949 -1.249692
C 4.136830 2.497114 0.671911
C 6.396520 3.861075 2.675773
C 6.058457 3.657013 4.420408
C 4.759582 2.872949 3.699888
C 4.136830 2.497114 5.621492
C 6.396520 3.861075 7.625353
C 6.058457 3.657013 9.369989
C 4.759582 2.872949 8.649469
C 4.136830 2.497114 10.571073
C 7.527097 6.009101 -5.040458
C 7.189033 5.805038 -3.295823
C 5.890158 5.020975 -4.016343
C 5.267407 4.645139 -2.094739
C 7.527097 6.009101 -0.090878
C 7.189033 5.805038 1.653758
C 5.890158 5.020975 0.933238
C 5.267407 4.645139 2.854841
C 7.527097 6.009101 4.858703
C 7.189033 5.805038 6.603338
C 5.890158 5.020975 5.882818
C 5.267407 4.645139 7.804422
C 7.693932 1.713050 1.046173
C 7.355868 1.508988 2.790808
C 6.056994 0.724924 2.070288
C 5.434242 0.349088 3.991892
C 7.693932 1.713050 5.995753
C 7.355868 1.508988 7.740389
C 6.056994 0.724924 7.019869
C 5.434242 0.349088 8.941473
C 7.693932 1.713050 10.945334
C 7.355868 1.508988 12.689969
C 6.056994 0.724924 11.969449
C 5.434242 0.349088 13.891053
C 8.824509 3.861075 -1.720478
C 8.486445 3.657013 0.024158
C 7.187570 2.872949 -0.696362
C 6.564819 2.497114 1.225241
C 8.824509 3.861075 3.229103
C 8.486445 3.657013 4.973738
C 7.187570 2.872949 4.253218
C 6.564819 2.497114 6.174822
C 8.824509 3.861075 8.178683
C 8.486445 3.657013 9.923319
C 7.187570 2.872949 9.202799
C 6.564819 2.497114 11.124403
C 9.955085 6.009101 -4.487128
C 9.617021 5.805038 -2.742493
C 8.318147 5.020975 -3.463013
C 7.695395 4.645139 -1.541409
C 9.955085 6.009101 0.462452
C 9.617021 5.805038 2.207088
C 8.318147 5.020975 1.486568
C 7.695395 4.645139 3.408172
C 9.955085 6.009101 5.412033
C 9.617021 5.805038 7.156668
C 8.318147 5.020975 6.436149
C 7.695395 4.645139 8.357752
