108
A
C 1.754119 2.997586 1.402069
C 1.804692 1.865717 2.453066
C 0.562150 0.659228 0.526366
C 0.691551 -0.547285 3.332239
C 1.754119 2.997586 5.258938
C 1.804692 1.865717 6.309935
C 0.562150 0.659228 4.383236
C 0.691551 -0.547285 7.189109
C 1.754119 2.997586 9.115808
C 1.804692 1.865717 10.166805
C 0.562150 0.659228 8.240106
C 0.691551 -0.547285 11.045979
C 1.642969 5.485209 1.402069
C 1.693542 4.353341 2.453066
C 0.451000 3.146851 0.526366
C 0.580401 1.940339 3.332239
C 1.642969 5.485209 5.258938
C 1.693542 4.353341 6.309935
C 0.451000 3.146851 4.383236
C 0.580401 1.940339 7.189109
C 1.642969 5.485209 9.115808
C 1.693542 4.353341 10.166805
C 0.451000 3.146851 8.240106
C 0.580401 1.940339 11.045979
C 1.531819 7.972833 1.402069
C 1.582392 6.840964 2.453066
C 0.339850 5.634474 0.526366
C 0.469251 4.427962 3.332239
C 1.531819 7.972833 5.258938
C 1.582392 6.840964 6.309935
C 0.339850 5.634474 4.383236
C 0.469251 4.427962 7.189109
C 1.531819 7.972833 9.115808
C 1.582392 6.840964 10.166805
C 0.339850 5.634474 8.240106
C 0.469251 4.427962 11.045979
C 4.271524 2.997586 1.402069
C 4.322098 1.865717 2.453066
C 3.079556 0.659228 0.526366
C 3.208957 -0.547285 3.332239
C 4.271524 2.997586 5.258938
C 4.322098 1.865717 6.309935
C 3.079556 0.659228 4.383236
C 3.208957 -0.547285 7.189109
C 4.271524 2.997586 9.115808
C 4.322098 1.865717 10.166805
C 3.079556 0.659228 8.240106
C 3.208957 -0.547285 11.045979
C 4.160374 5.485209 1.402069
C 4.210948 4.353341 2.453066
C 2.968406 3.146851 0.526366
C 3.097807 1.940339 3.332239
C 4.160374 5.485209 5.258938
C 4.210948 4.353341 6.309935
C 2.968406 3.146851 4.383236
C 3.097807 1.940339 7.189109
C 4.160374 5.485209 9.115808
C 4.210948 4.353341 10.166805
C 2.968406 3.146851 8.240106
C 3.097807 1.940339 11.045979
C 4.049224 7.972833 1.402069
C 4.099798 6.840964 2.453066
C 2.857256 5.634474 0.526366
C 2.986657 4.427962 3.332239
C 4.049224 7.972833 5.258938
C 4.099798 6.840964 6.309935
C 2.857256 5.634474 4.383236
C 2.986657 4.427962 7.189109
C 4.049224 7.972833 9.115808
C 4.099798 6.840964 10.166805
C 2.857256 5.634474 8.240106
C 2.986657 4.427962 11.045979
C 6.788930 2.997586 1.402069
C 6.839504 1.865717 2.453066
C 5.596962 0.659228 0.526366
C 5.726362 -0.547285 3.332239
C 6.788930 2.997586 5.258938
C 6.839504 1.865717 6.309935
C 5.596962 0.659228 4.383236
C 5.726362 -0.547285 7.189109
C 6.788930 2.997586 9.115808
C 6.839504 1.865717 10.166805
C 5.596962 0.659228 8.240106
C 5.726362 -0.547285 11.045979
C 6.677780 5.485209 1.402069
C 6.728354 4.353341 2.453066
C 5.485812 3.146851 0.526366
C 5.615212 1.940339 3.332239
C 6.677780 5.485209 5.258938
C 6.728354 4.353341 6.309935
C 5.485812 3.146851 4.383236
C 5.615212 1.940339 7.189109
C 6.677780 5.485209 9.115808
C 6.728354 4.353341 10.166805
C 5.485812 3.146851 8.240106
C 5.615212 1.940339 11.045979
C 6.566630 7.972833 1.402069
C 6.617204 6.840964 2.453066
C 5.374662 5.634474 0.526366
C 5.504062 4.427962 3.332239
C 6.566630 7.972833 5.258938
C 6.617204 6.840964 6.309935
C 5.374662 5.634474 4.383236
C 5.504062 4.427962 7.189109
C 6.566630 7.972833 9.115808
C 6.617204 6.840964 10.166805
C 5.374662 5.634474 8.240106
C 5.504062 4.427962 11.045979
