108
A
C 1.560188 2.762592 1.489210
C 1.669547 1.825501 2.813957
C 0.449442 0.701822 0.664851
C 0.772948 -0.421912 3.648224
C 1.560188 2.762592 5.797330
C 1.669547 1.825501 7.122077
C 0.449442 0.701822 4.972971
C 0.772948 -0.421912 7.956345
C 1.560188 2.762592 10.105451
C 1.669547 1.825501 11.430198
C 0.449442 0.701822 9.281092
C 0.772948 -0.421912 12.264465
C 1.276138 5.196594 1.489210
C 1.385497 4.259503 2.813957
C 0.165392 3.135824 0.664851
C 0.488898 2.012089 3.648224
C 1.276138 5.196594 5.797330
C 1.385497 4.259503 7.122077
C 0.165392 3.135824 4.972971
C 0.488898 2.012089 7.956345
C 1.276138 5.196594 10.105451
C 1.385497 4.259503 11.430198
C 0.165392 3.135824 9.281092
C 0.488898 2.012089 12.264465
C 0.992088 7.630595 1.489210
C 1.101447 6.693505 2.813957
C -0.118658 5.569826 0.664851
C 0.204848 4.446091 3.648224
C 0.992088 7.630595 5.797330
C 1.101447 6.693505 7.122077
C -0.118658 5.569826 4.972971
C 0.204848 4.446091 7.956345
C 0.992088 7.630595 10.105451
C 1.101447 6.693505 11.430198
C -0.118658 5.569826 9.281092
C 0.204848 4.446091 12.264465
C 4.070300 2.762592 1.489210
C 4.179660 1.825501 2.813957
C 2.959555 0.701822 0.664851
C 3.283061 -0.421912 3.648224
C 4.070300 2.762592 5.797330
C 4.179660 1.825501 7.122077
C 2.959555 0.701822 4.972971
C 3.283061 -0.421912 7.956345
C 4.070300 2.762592 10.105451
C 4.179660 1.825501 11.430198
C 2.959555 0.701822 9.281092
C 3.283061 -0.421912 12.264465
C 3.786250 5.196594 1.489210
C 3.895610 4.259503 2.813957
C 2.675505 3.135824 0.664851
C 2.999011 2.012089 3.648224
C 3.786250 5.196594 5.797330
C 3.895610 4.259503 7.122077
C 2.675505 3.135824 4.972971
C 2.999011 2.012089 7.956345
C 3.786250 5.196594 10.105451
C 3.895610 4.259503 11.430198
C 2.675505 3.135824 9.281092
C 2.999011 2.012089 12.264465
C 3.502200 7.630595 1.489210
C 3.611560 6.693505 2.813957
C 2.391455 5.569826 0.664851
C 2.714961 4.446091 3.648224
C 3.502200 7.630595 5.797330
C 3.611560 6.693505 7.122077
C 2.391455 5.569826 4.972971
C 2.714961 4.446091 7.956345
C 3.502200 7.630595 10.105451
C 3.611560 6.693505 11.430198
C 2.391455 5.569826 9.281092
C 2.714961 4.446091 12.264465
C 6.580413 2.762592 1.489210
C 6.689772 1.825501 2.813957
C 5.469668 0.701822 0.664851
C 5.793173 -0.421912 3.648224
C 6.580413 2.762592 5.797330
C 6.689772 1.825501 7.122077
C 5.469668 0.701822 4.972971
C 5.793173 -0.421912 7.956345
C 6.580413 2.762592 10.105451
C 6.689772 1.825501 11.430198
C 5.469668 0.701822 9.281092
C 5.793173 -0.421912 12.264465
C 6.296363 5.196594 1.489210
C 6.405722 4.259503 2.813957
C 5.185618 3.135824 0.664851
C 5.509123 2.012089 3.648224
C 6.296363 5.196594 5.797330
C 6.405722 4.259503 7.122077
C 5.185618 3.135824 4.972971
C 5.509123 2.012089 7.956345
C 6.296363 5.196594 10.105451
C 6.405722 4.259503 11.430198
C 5.185618 3.135824 9.281092
C 5.509123 2.012089 12.264465
C 6.012313 7.630595 1.489210
C 6.121672 6.693505 2.813957
C 4.901568 5.569826 0.664851
C 5.225073 4.446091 3.648224
C 6.012313 7.630595 5.797330
C 6.121672 6.693505 7.122077
C 4.901568 5.569826 4.972971
C 5.225073 4.446091 7.956345
C 6.012313 7.630595 10.105451
C 6.121672 6.693505 11.430198
C 4.901568 5.569826 9.281092
C 5.225073 4.446091 12.264465
