108
A
C 1.304345 2.408483 1.593597
C 1.457176 1.762304 3.412343
C 0.256712 0.763700 0.915017
C 0.867570 -0.235009 4.113501
C 1.304345 2.408483 6.610826
C 1.457176 1.762304 8.429572
C 0.256712 0.763700 5.932246
C 0.867570 -0.235009 9.130730
C 1.304345 2.408483 11.628055
C 1.457176 1.762304 13.446801
C 0.256712 0.763700 10.949475
C 0.867570 -0.235009 14.147959
C 0.748595 4.758222 1.593597
C 0.901426 4.112043 3.412343
C -0.299038 3.113440 0.915017
C 0.311820 2.114730 4.113501
C 0.748595 4.758222 6.610826
C 0.901426 4.112043 8.429572
C -0.299038 3.113440 5.932246
C 0.311820 2.114730 9.130730
C 0.748595 4.758222 11.628055
C 0.901426 4.112043 13.446801
C -0.299038 3.113440 10.949475
C 0.311820 2.114730 14.147959
C 0.192845 7.107961 1.593597
C 0.345676 6.461783 3.412343
C -0.854788 5.463179 0.915017
C -0.243930 4.464469 4.113501
C 0.192845 7.107961 6.610826
C 0.345676 6.461783 8.429572
C -0.854788 5.463179 5.932246
C -0.243930 4.464469 9.130730
C 0.192845 7.107961 11.628055
C 0.345676 6.461783 13.446801
C -0.854788 5.463179 10.949475
C -0.243930 4.464469 14.147959
C 3.802997 2.408483 1.593597
C 3.955828 1.762304 3.412343
C 2.755364 0.763700 0.915017
C 3.366222 -0.235009 4.113501
C 3.802997 2.408483 6.610826
C 3.955828 1.762304 8.429572
C 2.755364 0.763700 5.932246
C 3.366222 -0.235009 9.130730
C 3.802997 2.408483 11.628055
C 3.955828 1.762304 13.446801
C 2.755364 0.763700 10.949475
C 3.366222 -0.235009 14.147959
C 3.247247 4.758222 1.593597
C 3.400078 4.112043 3.412343
C 2.199614 3.113440 0.915017
C 2.810472 2.114730 4.113501
C 3.247247 4.758222 6.610826
C 3.400078 4.112043 8.429572
C 2.199614 3.113440 5.932246
C 2.810472 2.114730 9.130730
C 3.247247 4.758222 11.628055
C 3.400078 4.112043 13.446801
C 2.199614 3.113440 10.949475
C 2.810472 2.114730 14.147959
C 2.691497 7.107961 1.593597
C 2.844328 6.461783 3.412343
C 1.643864 5.463179 0.915017
C 2.254722 4.464469 4.113501
C 2.691497 7.107961 6.610826
C 2.844328 6.461783 8.429572
C 1.643864 5.463179 5.932246
C 2.254722 4.464469 9.130730
C 2.691497 7.107961 11.628055
C 2.844328 6.461783 13.446801
C 1.643864 5.463179 10.949475
C 2.254722 4.464469 14.147959
C 6.301649 2.408483 1.593597
C 6.454480 1.762304 3.412343
C 5.254016 0.763700 0.915017
C 5.864874 -0.235009 4.113501
C 6.301649 2.408483 6.610826
C 6.454480 1.762304 8.429572
C 5.254016 0.763700 5.932246
C 5.864874 -0.235009 9.130730
C 6.301649 2.408483 11.628055
C 6.454480 1.762304 13.446801
C 5.254016 0.763700 10.949475
C 5.864874 -0.235009 14.147959
C 5.745899 4.758222 1.593597
C 5.898730 4.112043 3.412343
C 4.698266 3.113440 0.915017
C 5.309124 2.114730 4.113501
C 5.745899 4.758222 6.610826
C 5.898730 4.112043 8.429572
C 4.698266 3.113440 5.932246
C 5.309124 2.114730 9.130730
C 5.745899 4.758222 11.628055
C 5.898730 4.112043 13.446801
C 4.698266 3.113440 10.949475
C 5.309124 2.114730 14.147959
C 5.190149 7.107961 1.593597
C 5.342980 6.461783 3.412343
C 4.142516 5.463179 0.915017
C 4.753374 4.464469 4.113501
C 5.190149 7.107961 6.610826
C 5.342980 6.461783 8.429572
C 4.142516 5.463179 5.932246
C 4.753374 4.464469 9.130730
C 5.190149 7.107961 11.628055
C 5.342980 6.461783 13.446801
C 4.142516 5.463179 10.949475
C 4.753374 4.464469 14.147959
