108
A
C 1.844642 3.100596 1.359791
C 1.862611 1.882953 2.303136
C 0.608087 0.640207 0.471947
C 0.651623 -0.602547 3.192079
C 1.844642 3.100596 5.023268
C 1.862611 1.882953 5.966613
C 0.608087 0.640207 4.135424
C 0.651623 -0.602547 6.855555
C 1.844642 3.100596 8.686744
C 1.862611 1.882953 9.630089
C 0.608087 0.640207 7.798901
C 0.651623 -0.602547 10.519032
C 1.807592 5.611200 1.359791
C 1.825561 4.393557 2.303136
C 0.571037 3.150811 0.471947
C 0.614573 1.908057 3.192079
C 1.807592 5.611200 5.023268
C 1.825561 4.393557 5.966613
C 0.571037 3.150811 4.135424
C 0.614573 1.908057 6.855555
C 1.807592 5.611200 8.686744
C 1.825561 4.393557 9.630089
C 0.571037 3.150811 7.798901
C 0.614573 1.908057 10.519032
C 1.770542 8.121804 1.359791
C 1.788511 6.904161 2.303136
C 0.533987 5.661414 0.471947
C 0.577523 4.418660 3.192079
C 1.770542 8.121804 5.023268
C 1.788511 6.904161 5.966613
C 0.533987 5.661414 4.135424
C 0.577523 4.418660 6.855555
C 1.770542 8.121804 8.686744
C 1.788511 6.904161 9.630089
C 0.533987 5.661414 7.798901
C 0.577523 4.418660 10.519032
C 4.365173 3.100596 1.359791
C 4.383143 1.882953 2.303136
C 3.128619 0.640207 0.471947
C 3.172154 -0.602547 3.192079
C 4.365173 3.100596 5.023268
C 4.383143 1.882953 5.966613
C 3.128619 0.640207 4.135424
C 3.172154 -0.602547 6.855555
C 4.365173 3.100596 8.686744
C 4.383143 1.882953 9.630089
C 3.128619 0.640207 7.798901
C 3.172154 -0.602547 10.519032
C 4.328123 5.611200 1.359791
C 4.346093 4.393557 2.303136
C 3.091569 3.150811 0.471947
C 3.135104 1.908057 3.192079
C 4.328123 5.611200 5.023268
C 4.346093 4.393557 5.966613
C 3.091569 3.150811 4.135424
C 3.135104 1.908057 6.855555
C 4.328123 5.611200 8.686744
C 4.346093 4.393557 9.630089
C 3.091569 3.150811 7.798901
C 3.135104 1.908057 10.519032
C 4.291073 8.121804 1.359791
C 4.309043 6.904161 2.303136
C 3.054519 5.661414 0.471947
C 3.098054 4.418660 3.192079
C 4.291073 8.121804 5.023268
C 4.309043 6.904161 5.966613
C 3.054519 5.661414 4.135424
C 3.098054 4.418660 6.855555
C 4.291073 8.121804 8.686744
C 4.309043 6.904161 9.630089
C 3.054519 5.661414 7.798901
C 3.098054 4.418660 10.519032
C 6.885705 3.100596 1.359791
C 6.903674 1.882953 2.303136
C 5.649150 0.640207 0.471947
C 5.692686 -0.602547 3.192079
C 6.885705 3.100596 5.023268
C 6.903674 1.882953 5.966613
C 5.649150 0.640207 4.135424
C 5.692686 -0.602547 6.855555
C 6.885705 3.100596 8.686744
C 6.903674 1.882953 9.630089
C 5.649150 0.640207 7.798901
C 5.692686 -0.602547 10.519032
C 6.848655 5.611200 1.359791
C 6.866624 4.393557 2.303136
C 5.612100 3.150811 0.471947
C 5.655636 1.908057 3.192079
C 6.848655 5.611200 5.023268
C 6.866624 4.393557 5.966613
C 5.612100 3.150811 4.135424
C 5.655636 1.908057 6.855555
C 6.848655 5.611200 8.686744
C 6.866624 4.393557 9.630089
C 5.612100 3.150811 7.798901
C 5.655636 1.908057 10.519032
C 6.811605 8.121804 1.359791
C 6.829574 6.904161 2.303136
C 5.575050 5.661414 0.471947
C 5.618586 4.418660 3.192079
C 6.811605 8.121804 5.023268
C 6.829574 6.904161 5.966613
C 5.575050 5.661414 4.135424
C 5.618586 4.418660 6.855555
C 6.811605 8.121804 8.686744
C 6.829574 6.904161 9.630089
C 5.575050 5.661414 7.798901
C 5.618586 4.418660 10.519032
