108
A
C 1.181262 2.207950 1.636582
C 1.331685 1.724961 3.783900
C 0.133853 0.797360 1.081541
C 0.904359 -0.130375 4.370471
C 1.181262 2.207950 7.072830
C 1.331685 1.724961 9.220148
C 0.133853 0.797360 6.517789
C 0.904359 -0.130375 9.806719
C 1.181262 2.207950 12.509078
C 1.331685 1.724961 14.656395
C 0.133853 0.797360 11.954037
C 0.904359 -0.130375 15.242966
C 0.464962 4.507897 1.636582
C 0.615385 4.024908 3.783900
C -0.582447 3.097307 1.081541
C 0.188059 2.169573 4.370471
C 0.464962 4.507897 7.072830
C 0.615385 4.024908 9.220148
C -0.582447 3.097307 6.517789
C 0.188059 2.169573 9.806719
C 0.464962 4.507897 12.509078
C 0.615385 4.024908 14.656395
C -0.582447 3.097307 11.954037
C 0.188059 2.169573 15.242966
C -0.251338 6.807845 1.636582
C -0.100915 6.324856 3.783900
C -1.298747 5.397255 1.081541
C -0.528241 4.469520 4.370471
C -0.251338 6.807845 7.072830
C -0.100915 6.324856 9.220148
C -1.298747 5.397255 6.517789
C -0.528241 4.469520 9.806719
C -0.251338 6.807845 12.509078
C -0.100915 6.324856 14.656395
C -1.298747 5.397255 11.954037
C -0.528241 4.469520 15.242966
C 3.673141 2.207950 1.636582
C 3.823564 1.724961 3.783900
C 2.625733 0.797360 1.081541
C 3.396239 -0.130375 4.370471
C 3.673141 2.207950 7.072830
C 3.823564 1.724961 9.220148
C 2.625733 0.797360 6.517789
C 3.396239 -0.130375 9.806719
C 3.673141 2.207950 12.509078
C 3.823564 1.724961 14.656395
C 2.625733 0.797360 11.954037
C 3.396239 -0.130375 15.242966
C 2.956841 4.507897 1.636582
C 3.107264 4.024908 3.783900
C 1.909433 3.097307 1.081541
C 2.679939 2.169573 4.370471
C 2.956841 4.507897 7.072830
C 3.107264 4.024908 9.220148
C 1.909433 3.097307 6.517789
C 2.679939 2.169573 9.806719
C 2.956841 4.507897 12.509078
C 3.107264 4.024908 14.656395
C 1.909433 3.097307 11.954037
C 2.679939 2.169573 15.242966
C 2.240541 6.807845 1.636582
C 2.390964 6.324856 3.783900
C 1.193133 5.397255 1.081541
C 1.963639 4.469520 4.370471
C 2.240541 6.807845 7.072830
C 2.390964 6.324856 9.220148
C 1.193133 5.397255 6.517789
C 1.963639 4.469520 9.806719
C 2.240541 6.807845 12.509078
C 2.390964 6.324856 14.656395
C 1.193133 5.397255 11.954037
C 1.963639 4.469520 15.242966
C 6.165021 2.207950 1.636582
C 6.315444 1.724961 3.783900
C 5.117613 0.797360 1.081541
C 5.888119 -0.130375 4.370471
C 6.165021 2.207950 7.072830
C 6.315444 1.724961 9.220148
C 5.117613 0.797360 6.517789
C 5.888119 -0.130375 9.806719
C 6.165021 2.207950 12.509078
C 6.315444 1.724961 14.656395
C 5.117613 0.797360 11.954037
C 5.888119 -0.130375 15.242966
C 5.448721 4.507897 1.636582
C 5.599144 4.024908 3.783900
C 4.401313 3.097307 1.081541
C 5.171819 2.169573 4.370471
C 5.448721 4.507897 7.072830
C 5.599144 4.024908 9.220148
C 4.401313 3.097307 6.517789
C 5.171819 2.169573 9.806719
C 5.448721 4.507897 12.509078
C 5.599144 4.024908 14.656395
C 4.401313 3.097307 11.954037
C 5.171819 2.169573 15.242966
C 4.732421 6.807845 1.636582
C 4.882844 6.324856 3.783900
C 3.685013 5.397255 1.081541
C 4.455519 4.469520 4.370471
C 4.732421 6.807845 7.072830
C 4.882844 6.324856 9.220148
C 3.685013 5.397255 6.517789
C 4.455519 4.469520 9.806719
C 4.732421 6.807845 12.509078
C 4.882844 6.324856 14.656395
C 3.685013 5.397255 11.954037
C 4.455519 4.469520 15.242966
