108
A
C 1.335713 2.455679 1.581705
C 1.486136 1.770922 3.328494
C 0.284117 0.755626 0.878561
C 0.857063 -0.259768 4.052304
C 1.335713 2.455679 6.502238
C 1.486136 1.770922 8.249027
C 0.284117 0.755626 5.799093
C 0.857063 -0.259768 8.972837
C 1.335713 2.455679 11.422770
C 1.486136 1.770922 13.169559
C 0.284117 0.755626 10.719626
C 0.857063 -0.259768 13.893369
C 0.817013 4.816908 1.581705
C 0.967436 4.132152 3.328494
C -0.234583 3.116856 0.878561
C 0.338363 2.101461 4.052304
C 0.817013 4.816908 6.502238
C 0.967436 4.132152 8.249027
C -0.234583 3.116856 5.799093
C 0.338363 2.101461 8.972837
C 0.817013 4.816908 11.422770
C 0.967436 4.132152 13.169559
C -0.234583 3.116856 10.719626
C 0.338363 2.101461 13.893369
C 0.298313 7.178138 1.581705
C 0.448736 6.493381 3.328494
C -0.753283 5.478085 0.878561
C -0.180337 4.462691 4.052304
C 0.298313 7.178138 6.502238
C 0.448736 6.493381 8.249027
C -0.753283 5.478085 5.799093
C -0.180337 4.462691 8.972837
C 0.298313 7.178138 11.422770
C 0.448736 6.493381 13.169559
C -0.753283 5.478085 10.719626
C -0.180337 4.462691 13.893369
C 3.835928 2.455679 1.581705
C 3.986351 1.770922 3.328494
C 2.784332 0.755626 0.878561
C 3.357278 -0.259768 4.052304
C 3.835928 2.455679 6.502238
C 3.986351 1.770922 8.249027
C 2.784332 0.755626 5.799093
C 3.357278 -0.259768 8.972837
C 3.835928 2.455679 11.422770
C 3.986351 1.770922 13.169559
C 2.784332 0.755626 10.719626
C 3.357278 -0.259768 13.893369
C 3.317228 4.816908 1.581705
C 3.467651 4.132152 3.328494
C 2.265632 3.116856 0.878561
C 2.838578 2.101461 4.052304
C 3.317228 4.816908 6.502238
C 3.467651 4.132152 8.249027
C 2.265632 3.116856 5.799093
C 2.838578 2.101461 8.972837
C 3.317228 4.816908 11.422770
C 3.467651 4.132152 13.169559
C 2.265632 3.116856 10.719626
C 2.838578 2.101461 13.893369
C 2.798528 7.178138 1.581705
C 2.948951 6.493381 3.328494
C 1.746932 5.478085 0.878561
C 2.319878 4.462691 4.052304
C 2.798528 7.178138 6.502238
C 2.948951 6.493381 8.249027
C 1.746932 5.478085 5.799093
C 2.319878 4.462691 8.972837
C 2.798528 7.178138 11.422770
C 2.948951 6.493381 13.169559
C 1.746932 5.478085 10.719626
C 2.319878 4.462691 13.893369
C 6.336142 2.455679 1.581705
C 6.486565 1.770922 3.328494
C 5.284547 0.755626 0.878561
C 5.857492 -0.259768 4.052304
C 6.336142 2.455679 6.502238
C 6.486565 1.770922 8.249027
C 5.284547 0.755626 5.799093
C 5.857492 -0.259768 8.972837
C 6.336142 2.455679 11.422770
C 6.486565 1.770922 13.169559
C 5.284547 0.755626 10.719626
C 5.857492 -0.259768 13.893369
C 5.817442 4.816908 1.581705
C 5.967865 4.132152 3.328494
C 4.765847 3.116856 0.878561
C 5.338792 2.101461 4.052304
C 5.817442 4.816908 6.502238
C 5.967865 4.132152 8.249027
C 4.765847 3.116856 5.799093
C 5.338792 2.101461 8.972837
C 5.817442 4.816908 11.422770
C 5.967865 4.132152 13.169559
C 4.765847 3.116856 10.719626
C 5.338792 2.101461 13.893369
C 5.298742 7.178138 1.581705
C 5.449165 6.493381 3.328494
C 4.247147 5.478085 0.878561
C 4.820092 4.462691 4.052304
C 5.298742 7.178138 6.502238
C 5.449165 6.493381 8.249027
C 4.247147 5.478085 5.799093
C 4.820092 4.462691 8.972837
C 5.298742 7.178138 11.422770
C 5.449165 6.493381 13.169559
C 4.247147 5.478085 10.719626
C 4.820092 4.462691 13.893369
