108
A
C 2.840007 1.717360 -0.140843
C 2.489170 1.505208 1.561622
C 1.187964 0.718334 0.934142
C 0.588429 0.355855 2.797567
C 2.840007 1.717360 4.736090
C 2.489170 1.505208 6.438555
C 1.187964 0.718334 5.811075
C 0.588429 0.355855 7.674499
C 2.840007 1.717360 9.613022
C 2.489170 1.505208 11.315487
C 1.187964 0.718334 10.688007
C 0.588429 0.355855 12.551432
C 3.966462 3.865738 -3.016703
C 3.615624 3.653586 -1.314238
C 2.314418 2.866712 -1.941718
C 1.714883 2.504234 -0.078294
C 3.966462 3.865738 1.860229
C 3.615624 3.653586 3.562694
C 2.314418 2.866712 2.935214
C 1.714883 2.504234 4.798639
C 3.966462 3.865738 6.737162
C 3.615624 3.653586 8.439627
C 2.314418 2.866712 7.812147
C 1.714883 2.504234 9.675571
C 5.092916 6.014116 -5.892564
C 4.742079 5.801964 -4.190099
C 3.440873 5.015091 -4.817579
C 2.841338 4.652612 -2.954154
C 5.092916 6.014116 -1.015631
C 4.742079 5.801964 0.686834
C 3.440873 5.015091 0.059354
C 2.841338 4.652612 1.922779
C 5.092916 6.014116 3.861301
C 4.742079 5.801964 5.563766
C 3.440873 5.015091 4.936286
C 2.841338 4.652612 6.799711
C 5.266337 1.717360 0.434329
C 4.915500 1.505208 2.136794
C 3.614293 0.718334 1.509314
C 3.014759 0.355855 3.372739
C 5.266337 1.717360 5.311262
C 4.915500 1.505208 7.013727
C 3.614293 0.718334 6.386247
C 3.014759 0.355855 8.249671
C 5.266337 1.717360 10.188194
C 4.915500 1.505208 11.890659
C 3.614293 0.718334 11.263179
C 3.014759 0.355855 13.126604
C 6.392792 3.865738 -2.441531
C 6.041954 3.653586 -0.739066
C 4.740748 2.866712 -1.366546
C 4.141213 2.504234 0.496879
C 6.392792 3.865738 2.435401
C 6.041954 3.653586 4.137866
C 4.740748 2.866712 3.510386
C 4.141213 2.504234 5.373811
C 6.392792 3.865738 7.312334
C 6.041954 3.653586 9.014799
C 4.740748 2.866712 8.387319
C 4.141213 2.504234 10.250743
C 7.519246 6.014116 -5.317392
C 7.168409 5.801964 -3.614927
C 5.867203 5.015091 -4.242406
C 5.267668 4.652612 -2.378982
C 7.519246 6.014116 -0.440459
C 7.168409 5.801964 1.262006
C 5.867203 5.015091 0.634526
C 5.267668 4.652612 2.497951
C 7.519246 6.014116 4.436473
C 7.168409 5.801964 6.138938
C 5.867203 5.015091 5.511458
C 5.267668 4.652612 7.374883
C 7.692667 1.717360 1.009501
C 7.341830 1.505208 2.711966
C 6.040623 0.718334 2.084486
C 5.441089 0.355855 3.947911
C 7.692667 1.717360 5.886434
C 7.341830 1.505208 7.588899
C 6.040623 0.718334 6.961419
C 5.441089 0.355855 8.824843
C 7.692667 1.717360 10.763366
C 7.341830 1.505208 12.465831
C 6.040623 0.718334 11.838351
C 5.441089 0.355855 13.701776
C 8.819122 3.865738 -1.866359
C 8.468284 3.653586 -0.163894
C 7.167078 2.866712 -0.791374
C 6.567543 2.504234 1.072051
C 8.819122 3.865738 3.010573
C 8.468284 3.653586 4.713038
C 7.167078 2.866712 4.085558
C 6.567543 2.504234 5.948983
C 8.819122 3.865738 7.887506
C 8.468284 3.653586 9.589971
C 7.167078 2.866712 8.962491
C 6.567543 2.504234 10.825916
C 9.945576 6.014116 -4.742220
C 9.594739 5.801964 -3.039754
C 8.293533 5.015091 -3.667234
C 7.693998 4.652612 -1.803810
C 9.945576 6.014116 0.134713
C 9.594739 5.801964 1.837178
C 8.293533 5.015091 1.209698
C 7.693998 4.652612 3.073123
C 9.945576 6.014116 5.011645
C 9.594739 5.801964 6.714110
C 8.293533 5.015091 6.086631
C 7.693998 4.652612 7.950055
