108
A
C 2.786487 1.617145 1.503946
C 2.745001 1.593068 4.645051
C 1.501953 0.871532 1.625170
C 0.341876 0.198539 4.845736
C 2.786487 1.617145 8.076002
C 2.745001 1.593068 11.217107
C 1.501953 0.871532 8.197226
C 0.341876 0.198539 11.417792
C 2.786487 1.617145 14.648057
C 2.745001 1.593068 17.789162
C 1.501953 0.871532 14.769281
C 0.341876 0.198539 17.989848
C 4.009121 3.757286 1.176316
C 3.967635 3.733210 4.317422
C 2.724587 3.011674 1.297540
C 1.564510 2.338681 4.518107
C 4.009121 3.757286 7.748372
C 3.967635 3.733210 10.889477
C 2.724587 3.011674 7.869596
C 1.564510 2.338681 11.090162
C 4.009121 3.757286 14.320427
C 3.967635 3.733210 17.461533
C 2.724587 3.011674 14.441652
C 1.564510 2.338681 17.662218
C 5.231755 5.897428 0.848687
C 5.190269 5.873351 3.989792
C 3.947221 5.151816 0.969911
C 2.787144 4.478822 4.190477
C 5.231755 5.897428 7.420742
C 5.190269 5.873351 10.561847
C 3.947221 5.151816 7.541966
C 2.787144 4.478822 10.762533
C 5.231755 5.897428 13.992798
C 5.190269 5.873351 17.133903
C 3.947221 5.151816 14.114022
C 2.787144 4.478822 17.334588
C 5.251512 1.617145 1.569472
C 5.210026 1.593068 4.710577
C 3.966978 0.871532 1.690696
C 2.806901 0.198539 4.911262
C 5.251512 1.617145 8.141527
C 5.210026 1.593068 11.282633
C 3.966978 0.871532 8.262752
C 2.806901 0.198539 11.483318
C 5.251512 1.617145 14.713583
C 5.210026 1.593068 17.854688
C 3.966978 0.871532 14.834807
C 2.806901 0.198539 18.055374
C 6.474146 3.757286 1.241842
C 6.432660 3.733210 4.382947
C 5.189612 3.011674 1.363066
C 4.029535 2.338681 4.583633
C 6.474146 3.757286 7.813898
C 6.432660 3.733210 10.955003
C 5.189612 3.011674 7.935122
C 4.029535 2.338681 11.155688
C 6.474146 3.757286 14.385953
C 6.432660 3.733210 17.527059
C 5.189612 3.011674 14.507178
C 4.029535 2.338681 17.727744
C 7.696780 5.897428 0.914213
C 7.655294 5.873351 4.055318
C 6.412246 5.151816 1.035437
C 5.252169 4.478822 4.256003
C 7.696780 5.897428 7.486268
C 7.655294 5.873351 10.627373
C 6.412246 5.151816 7.607492
C 5.252169 4.478822 10.828059
C 7.696780 5.897428 14.058324
C 7.655294 5.873351 17.199429
C 6.412246 5.151816 14.179548
C 5.252169 4.478822 17.400114
C 7.716537 1.617145 1.634998
C 7.675051 1.593068 4.776103
C 6.432003 0.871532 1.756222
C 5.271926 0.198539 4.976788
C 7.716537 1.617145 8.207053
C 7.675051 1.593068 11.348159
C 6.432003 0.871532 8.328278
C 5.271926 0.198539 11.548844
C 7.716537 1.617145 14.779109
C 7.675051 1.593068 17.920214
C 6.432003 0.871532 14.900333
C 5.271926 0.198539 18.120899
C 8.939171 3.757286 1.307368
C 8.897685 3.733210 4.448473
C 7.654637 3.011674 1.428592
C 6.494560 2.338681 4.649159
C 8.939171 3.757286 7.879424
C 8.897685 3.733210 11.020529
C 7.654637 3.011674 8.000648
C 6.494560 2.338681 11.221214
C 8.939171 3.757286 14.451479
C 8.897685 3.733210 17.592585
C 7.654637 3.011674 14.572704
C 6.494560 2.338681 17.793270
C 10.161805 5.897428 0.979739
C 10.120319 5.873351 4.120844
C 8.877271 5.151816 1.100963
C 7.717194 4.478822 4.321529
C 10.161805 5.897428 7.551794
C 10.120319 5.873351 10.692899
C 8.877271 5.151816 7.673018
C 7.717194 4.478822 10.893585
C 10.161805 5.897428 14.123850
C 10.120319 5.873351 17.264955
C 8.877271 5.151816 14.245074
C 7.717194 4.478822 17.465640
