108
A
C 2.787335 1.618571 1.483835
C 2.741263 1.591818 4.597699
C 1.497329 0.869352 1.615254
C 0.345537 0.200778 4.816438
C 2.787335 1.618571 8.031675
C 2.741263 1.591818 11.145539
C 1.497329 0.869352 8.163093
C 0.345537 0.200778 11.364277
C 2.787335 1.618571 14.579514
C 2.741263 1.591818 17.693379
C 1.497329 0.869352 14.710933
C 0.345537 0.200778 17.912117
C 4.008595 3.758831 1.119802
C 3.962523 3.732077 4.233666
C 2.718589 3.009611 1.251221
C 1.566797 2.341037 4.452405
C 4.008595 3.758831 7.667642
C 3.962523 3.732077 10.781506
C 2.718589 3.009611 7.799060
C 1.566797 2.341037 11.000244
C 4.008595 3.758831 14.215481
C 3.962523 3.732077 17.329346
C 2.718589 3.009611 14.346900
C 1.566797 2.341037 17.548084
C 5.229855 5.899090 0.755769
C 5.183783 5.872337 3.869634
C 3.939850 5.149871 0.887188
C 2.788057 4.481297 4.088372
C 5.229855 5.899090 7.303609
C 5.183783 5.872337 10.417473
C 3.939850 5.149871 7.435027
C 2.788057 4.481297 10.636211
C 5.229855 5.899090 13.851448
C 5.183783 5.872337 16.965313
C 3.939850 5.149871 13.982867
C 2.788057 4.481297 17.184051
C 5.251807 1.618571 1.556642
C 5.205735 1.591818 4.670506
C 3.961802 0.869352 1.688060
C 2.810009 0.200778 4.889244
C 5.251807 1.618571 8.104481
C 5.205735 1.591818 11.218346
C 3.961802 0.869352 8.235900
C 2.810009 0.200778 11.437084
C 5.251807 1.618571 14.652321
C 5.205735 1.591818 17.766185
C 3.961802 0.869352 14.783740
C 2.810009 0.200778 17.984924
C 6.473067 3.758831 1.192609
C 6.426996 3.732077 4.306473
C 5.183062 3.009611 1.324027
C 4.031269 2.341037 4.525211
C 6.473067 3.758831 7.740448
C 6.426996 3.732077 10.854313
C 5.183062 3.009611 7.871867
C 4.031269 2.341037 11.073051
C 6.473067 3.758831 14.288288
C 6.426996 3.732077 17.402152
C 5.183062 3.009611 14.419707
C 4.031269 2.341037 17.620891
C 7.694327 5.899090 0.828576
C 7.648256 5.872337 3.942440
C 6.404322 5.149871 0.959995
C 5.252529 4.481297 4.161178
C 7.694327 5.899090 7.376416
C 7.648256 5.872337 10.490280
C 6.404322 5.149871 7.507834
C 5.252529 4.481297 10.709018
C 7.694327 5.899090 13.924255
C 7.648256 5.872337 17.038119
C 6.404322 5.149871 14.055674
C 5.252529 4.481297 17.256858
C 7.716279 1.618571 1.629448
C 7.670208 1.591818 4.743313
C 6.426274 0.869352 1.760867
C 5.274481 0.200778 4.962051
C 7.716279 1.618571 8.177288
C 7.670208 1.591818 11.291152
C 6.426274 0.869352 8.308707
C 5.274481 0.200778 11.509891
C 7.716279 1.618571 14.725128
C 7.670208 1.591818 17.838992
C 6.426274 0.869352 14.856546
C 5.274481 0.200778 18.057730
C 8.937539 3.758831 1.265416
C 8.891468 3.732077 4.379280
C 7.647534 3.009611 1.396834
C 6.495741 2.341037 4.598018
C 8.937539 3.758831 7.813255
C 8.891468 3.732077 10.927119
C 7.647534 3.009611 7.944674
C 6.495741 2.341037 11.145858
C 8.937539 3.758831 14.361095
C 8.891468 3.732077 17.474959
C 7.647534 3.009611 14.492513
C 6.495741 2.341037 17.693697
C 10.158799 5.899090 0.901383
C 10.112728 5.872337 4.015247
C 8.868794 5.149871 1.032801
C 7.717001 4.481297 4.233985
C 10.158799 5.899090 7.449222
C 10.112728 5.872337 10.563086
C 8.868794 5.149871 7.580641
C 7.717001 4.481297 10.781825
C 10.158799 5.899090 13.997062
C 10.112728 5.872337 17.110926
C 8.868794 5.149871 14.128480
C 7.717001 4.481297 17.329664
