108
A
C 1.072052 1.999230 1.667340
C 1.196540 1.684744 4.198964
C -0.005910 0.831195 1.276410
C 0.928091 -0.022517 4.632284
C 1.072052 1.999230 7.554838
C 1.196540 1.684744 10.086462
C -0.005910 0.831195 7.163908
C 0.928091 -0.022517 10.519782
C 1.072052 1.999230 13.442336
C 1.196540 1.684744 15.973961
C -0.005910 0.831195 13.051406
C 0.928091 -0.022517 16.407281
C 0.182852 4.245556 1.667340
C 0.307340 3.931070 4.198964
C -0.895110 3.077521 1.276410
C 0.038891 2.223809 4.632284
C 0.182852 4.245556 7.554838
C 0.307340 3.931070 10.086462
C -0.895110 3.077521 7.163908
C 0.038891 2.223809 10.519782
C 0.182852 4.245556 13.442336
C 0.307340 3.931070 15.973961
C -0.895110 3.077521 13.051406
C 0.038891 2.223809 16.407281
C -0.706348 6.491882 1.667340
C -0.581860 6.177396 4.198964
C -1.784310 5.323847 1.276410
C -0.850309 4.470135 4.632284
C -0.706348 6.491882 7.554838
C -0.581860 6.177396 10.086462
C -1.784310 5.323847 7.163908
C -0.850309 4.470135 10.519782
C -0.706348 6.491882 13.442336
C -0.581860 6.177396 15.973961
C -1.784310 5.323847 13.051406
C -0.850309 4.470135 16.407281
C 3.556638 1.999230 1.667340
C 3.681126 1.684744 4.198964
C 2.478677 0.831195 1.276410
C 3.412677 -0.022517 4.632284
C 3.556638 1.999230 7.554838
C 3.681126 1.684744 10.086462
C 2.478677 0.831195 7.163908
C 3.412677 -0.022517 10.519782
C 3.556638 1.999230 13.442336
C 3.681126 1.684744 15.973961
C 2.478677 0.831195 13.051406
C 3.412677 -0.022517 16.407281
C 2.667438 4.245556 1.667340
C 2.791926 3.931070 4.198964
C 1.589477 3.077521 1.276410
C 2.523477 2.223809 4.632284
C 2.667438 4.245556 7.554838
C 2.791926 3.931070 10.086462
C 1.589477 3.077521 7.163908
C 2.523477 2.223809 10.519782
C 2.667438 4.245556 13.442336
C 2.791926 3.931070 15.973961
C 1.589477 3.077521 13.051406
C 2.523477 2.223809 16.407281
C 1.778238 6.491882 1.667340
C 1.902726 6.177396 4.198964
C 0.700277 5.323847 1.276410
C 1.634277 4.470135 4.632284
C 1.778238 6.491882 7.554838
C 1.902726 6.177396 10.086462
C 0.700277 5.323847 7.163908
C 1.634277 4.470135 10.519782
C 1.778238 6.491882 13.442336
C 1.902726 6.177396 15.973961
C 0.700277 5.323847 13.051406
C 1.634277 4.470135 16.407281
C 6.041225 1.999230 1.667340
C 6.165713 1.684744 4.198964
C 4.963263 0.831195 1.276410
C 5.897264 -0.022517 4.632284
C 6.041225 1.999230 7.554838
C 6.165713 1.684744 10.086462
C 4.963263 0.831195 7.163908
C 5.897264 -0.022517 10.519782
C 6.041225 1.999230 13.442336
C 6.165713 1.684744 15.973961
C 4.963263 0.831195 13.051406
C 5.897264 -0.022517 16.407281
C 5.152025 4.245556 1.667340
C 5.276513 3.931070 4.198964
C 4.074063 3.077521 1.276410
C 5.008064 2.223809 4.632284
C 5.152025 4.245556 7.554838
C 5.276513 3.931070 10.086462
C 4.074063 3.077521 7.163908
C 5.008064 2.223809 10.519782
C 5.152025 4.245556 13.442336
C 5.276513 3.931070 15.973961
C 4.074063 3.077521 13.051406
C 5.008064 2.223809 16.407281
C 4.262825 6.491882 1.667340
C 4.387313 6.177396 4.198964
C 3.184863 5.323847 1.276410
C 4.118864 4.470135 4.632284
C 4.262825 6.491882 7.554838
C 4.387313 6.177396 10.086462
C 3.184863 5.323847 7.163908
C 4.118864 4.470135 10.519782
C 4.262825 6.491882 13.442336
C 4.387313 6.177396 15.973961
C 3.184863 5.323847 13.051406
C 4.118864 4.470135 16.407281
