108
A
C 1.521780 2.713213 1.505787
C 1.640587 1.816883 2.893304
C 0.424285 0.710624 0.696622
C 0.788247 -0.395698 3.713922
C 1.521780 2.713213 5.910604
C 1.640587 1.816883 7.298121
C 0.424285 0.710624 5.101439
C 0.788247 -0.395698 8.118739
C 1.521780 2.713213 10.315421
C 1.640587 1.816883 11.702939
C 0.424285 0.710624 9.506256
C 0.788247 -0.395698 12.523556
C 1.200680 5.135724 1.505787
C 1.319487 4.239395 2.893304
C 0.103185 3.133136 0.696622
C 0.467147 2.026813 3.713922
C 1.200680 5.135724 5.910604
C 1.319487 4.239395 7.298121
C 0.103185 3.133136 5.101439
C 0.467147 2.026813 8.118739
C 1.200680 5.135724 10.315421
C 1.319487 4.239395 11.702939
C 0.103185 3.133136 9.506256
C 0.467147 2.026813 12.523556
C 0.879580 7.558235 1.505787
C 0.998387 6.661906 2.893304
C -0.217915 5.555647 0.696622
C 0.146047 4.449325 3.713922
C 0.879580 7.558235 5.910604
C 0.998387 6.661906 7.298121
C -0.217915 5.555647 5.101439
C 0.146047 4.449325 8.118739
C 0.879580 7.558235 10.315421
C 0.998387 6.661906 11.702939
C -0.217915 5.555647 9.506256
C 0.146047 4.449325 12.523556
C 4.030330 2.713213 1.505787
C 4.149137 1.816883 2.893304
C 2.932835 0.710624 0.696622
C 3.296797 -0.395698 3.713922
C 4.030330 2.713213 5.910604
C 4.149137 1.816883 7.298121
C 2.932835 0.710624 5.101439
C 3.296797 -0.395698 8.118739
C 4.030330 2.713213 10.315421
C 4.149137 1.816883 11.702939
C 2.932835 0.710624 9.506256
C 3.296797 -0.395698 12.523556
C 3.709230 5.135724 1.505787
C 3.828037 4.239395 2.893304
C 2.611735 3.133136 0.696622
C 2.975697 2.026813 3.713922
C 3.709230 5.135724 5.910604
C 3.828037 4.239395 7.298121
C 2.611735 3.133136 5.101439
C 2.975697 2.026813 8.118739
C 3.709230 5.135724 10.315421
C 3.828037 4.239395 11.702939
C 2.611735 3.133136 9.506256
C 2.975697 2.026813 12.523556
C 3.388130 7.558235 1.505787
C 3.506937 6.661906 2.893304
C 2.290635 5.555647 0.696622
C 2.654597 4.449325 3.713922
C 3.388130 7.558235 5.910604
C 3.506937 6.661906 7.298121
C 2.290635 5.555647 5.101439
C 2.654597 4.449325 8.118739
C 3.388130 7.558235 10.315421
C 3.506937 6.661906 11.702939
C 2.290635 5.555647 9.506256
C 2.654597 4.449325 12.523556
C 6.538880 2.713213 1.505787
C 6.657687 1.816883 2.893304
C 5.441385 0.710624 0.696622
C 5.805347 -0.395698 3.713922
C 6.538880 2.713213 5.910604
C 6.657687 1.816883 7.298121
C 5.441385 0.710624 5.101439
C 5.805347 -0.395698 8.118739
C 6.538880 2.713213 10.315421
C 6.657687 1.816883 11.702939
C 5.441385 0.710624 9.506256
C 5.805347 -0.395698 12.523556
C 6.217780 5.135724 1.505787
C 6.336587 4.239395 2.893304
C 5.120285 3.133136 0.696622
C 5.484247 2.026813 3.713922
C 6.217780 5.135724 5.910604
C 6.336587 4.239395 7.298121
C 5.120285 3.133136 5.101439
C 5.484247 2.026813 8.118739
C 6.217780 5.135724 10.315421
C 6.336587 4.239395 11.702939
C 5.120285 3.133136 9.506256
C 5.484247 2.026813 12.523556
C 5.896680 7.558235 1.505787
C 6.015487 6.661906 2.893304
C 4.799185 5.555647 0.696622
C 5.163147 4.449325 3.713922
C 5.896680 7.558235 5.910604
C 6.015487 6.661906 7.298121
C 4.799185 5.555647 5.101439
C 5.163147 4.449325 8.118739
C 5.896680 7.558235 10.315421
C 6.015487 6.661906 11.702939
C 4.799185 5.555647 9.506256
C 5.163147 4.449325 12.523556
