108
A
C 2.850583 1.740367 -0.584325
C 2.432351 1.485024 0.922702
C 1.118955 0.683149 0.777080
C 0.642023 0.391982 2.330193
C 2.850583 1.740367 3.905151
C 2.432351 1.485024 5.412178
C 1.118955 0.683149 5.266556
C 0.642023 0.391982 6.819668
C 2.850583 1.740367 8.394627
C 2.432351 1.485024 9.901654
C 1.118955 0.683149 9.756032
C 0.642023 0.391982 11.309144
C 3.955054 3.890628 -4.042638
C 3.536822 3.635285 -2.535611
C 2.223426 2.833410 -2.681233
C 1.746494 2.542243 -1.128120
C 3.955054 3.890628 0.446838
C 3.536822 3.635285 1.953865
C 2.223426 2.833410 1.808243
C 1.746494 2.542243 3.361355
C 3.955054 3.890628 4.936314
C 3.536822 3.635285 6.443341
C 2.223426 2.833410 6.297718
C 1.746494 2.542243 7.850831
C 5.059524 6.040889 -7.500951
C 4.641292 5.785546 -5.993924
C 3.327896 4.983671 -6.139546
C 2.850964 4.692504 -4.586433
C 5.059524 6.040889 -3.011475
C 4.641292 5.785546 -1.504448
C 3.327896 4.983671 -1.650070
C 2.850964 4.692504 -0.096958
C 5.059524 6.040889 1.478000
C 4.641292 5.785546 2.985028
C 3.327896 4.983671 2.839405
C 2.850964 4.692504 4.392518
C 5.268069 1.740367 0.107338
C 4.849836 1.485024 1.614365
C 3.536441 0.683149 1.468743
C 3.059508 0.391982 3.021855
C 5.268069 1.740367 4.596814
C 4.849836 1.485024 6.103841
C 3.536441 0.683149 5.958218
C 3.059508 0.391982 7.511331
C 5.268069 1.740367 9.086289
C 4.849836 1.485024 10.593316
C 3.536441 0.683149 10.447694
C 3.059508 0.391982 12.000807
C 6.372539 3.890628 -3.350975
C 5.954307 3.635285 -1.843948
C 4.640911 2.833410 -1.989570
C 4.163979 2.542243 -0.436458
C 6.372539 3.890628 1.138500
C 5.954307 3.635285 2.645528
C 4.640911 2.833410 2.499905
C 4.163979 2.542243 4.053018
C 6.372539 3.890628 5.627976
C 5.954307 3.635285 7.135003
C 4.640911 2.833410 6.989381
C 4.163979 2.542243 8.542494
C 7.477010 6.040889 -6.809288
C 7.058778 5.785546 -5.302261
C 5.745382 4.983671 -5.447883
C 5.268450 4.692504 -3.894771
C 7.477010 6.040889 -2.319813
C 7.058778 5.785546 -0.812785
C 5.745382 4.983671 -0.958408
C 5.268450 4.692504 0.594705
C 7.477010 6.040889 2.169663
C 7.058778 5.785546 3.676690
C 5.745382 4.983671 3.531068
C 5.268450 4.692504 5.084181
C 7.685554 1.740367 0.799000
C 7.267322 1.485024 2.306028
C 5.953926 0.683149 2.160405
C 5.476994 0.391982 3.713518
C 7.685554 1.740367 5.288476
C 7.267322 1.485024 6.795503
C 5.953926 0.683149 6.649881
C 5.476994 0.391982 8.202994
C 7.685554 1.740367 9.777952
C 7.267322 1.485024 11.284979
C 5.953926 0.683149 11.139357
C 5.476994 0.391982 12.692469
C 8.790025 3.890628 -2.659313
C 8.371792 3.635285 -1.152285
C 7.058397 2.833410 -1.297908
C 6.581464 2.542243 0.255205
C 8.790025 3.890628 1.830163
C 8.371792 3.635285 3.337190
C 7.058397 2.833410 3.191568
C 6.581464 2.542243 4.744681
C 8.790025 3.890628 6.319639
C 8.371792 3.635285 7.826666
C 7.058397 2.833410 7.681044
C 6.581464 2.542243 9.234156
C 9.894495 6.040889 -6.117626
C 9.476263 5.785546 -4.610599
C 8.162867 4.983671 -4.756221
C 7.685935 4.692504 -3.203108
C 9.894495 6.040889 -1.628150
C 9.476263 5.785546 -0.121123
C 8.162867 4.983671 -0.266745
C 7.685935 4.692504 1.286367
C 9.894495 6.040889 2.861326
C 9.476263 5.785546 4.368353
C 8.162867 4.983671 4.222731
C 7.685935 4.692504 5.775843
