108
A
C 1.460238 2.631680 1.531772
C 1.592321 1.802521 3.027129
C 0.381567 0.725039 0.751218
C 0.812064 -0.352518 3.821838
C 1.460238 2.631680 6.097750
C 1.592321 1.802521 7.593108
C 0.381567 0.725039 5.317196
C 0.812064 -0.352518 8.387816
C 1.460238 2.631680 10.663728
C 1.592321 1.802521 12.159086
C 0.381567 0.725039 9.883174
C 0.812064 -0.352518 12.953794
C 1.077388 5.035041 1.531772
C 1.209471 4.205881 3.027129
C -0.001283 3.128399 0.751218
C 0.429214 2.050843 3.821838
C 1.077388 5.035041 6.097750
C 1.209471 4.205881 7.593108
C -0.001283 3.128399 5.317196
C 0.429214 2.050843 8.387816
C 1.077388 5.035041 10.663728
C 1.209471 4.205881 12.159086
C -0.001283 3.128399 9.883174
C 0.429214 2.050843 12.953794
C 0.694538 7.438401 1.531772
C 0.826621 6.609242 3.027129
C -0.384133 5.531760 0.751218
C 0.046364 4.454204 3.821838
C 0.694538 7.438401 6.097750
C 0.826621 6.609242 7.593108
C -0.384133 5.531760 5.317196
C 0.046364 4.454204 8.387816
C 0.694538 7.438401 10.663728
C 0.826621 6.609242 12.159086
C -0.384133 5.531760 9.883174
C 0.046364 4.454204 12.953794
C 3.966183 2.631680 1.531772
C 4.098266 1.802521 3.027129
C 2.887512 0.725039 0.751218
C 3.318009 -0.352518 3.821838
C 3.966183 2.631680 6.097750
C 4.098266 1.802521 7.593108
C 2.887512 0.725039 5.317196
C 3.318009 -0.352518 8.387816
C 3.966183 2.631680 10.663728
C 4.098266 1.802521 12.159086
C 2.887512 0.725039 9.883174
C 3.318009 -0.352518 12.953794
C 3.583333 5.035041 1.531772
C 3.715416 4.205881 3.027129
C 2.504662 3.128399 0.751218
C 2.935159 2.050843 3.821838
C 3.583333 5.035041 6.097750
C 3.715416 4.205881 7.593108
C 2.504662 3.128399 5.317196
C 2.935159 2.050843 8.387816
C 3.583333 5.035041 10.663728
C 3.715416 4.205881 12.159086
C 2.504662 3.128399 9.883174
C 2.935159 2.050843 12.953794
C 3.200483 7.438401 1.531772
C 3.332566 6.609242 3.027129
C 2.121812 5.531760 0.751218
C 2.552309 4.454204 3.821838
C 3.200483 7.438401 6.097750
C 3.332566 6.609242 7.593108
C 2.121812 5.531760 5.317196
C 2.552309 4.454204 8.387816
C 3.200483 7.438401 10.663728
C 3.332566 6.609242 12.159086
C 2.121812 5.531760 9.883174
C 2.552309 4.454204 12.953794
C 6.472128 2.631680 1.531772
C 6.604211 1.802521 3.027129
C 5.393457 0.725039 0.751218
C 5.823954 -0.352518 3.821838
C 6.472128 2.631680 6.097750
C 6.604211 1.802521 7.593108
C 5.393457 0.725039 5.317196
C 5.823954 -0.352518 8.387816
C 6.472128 2.631680 10.663728
C 6.604211 1.802521 12.159086
C 5.393457 0.725039 9.883174
C 5.823954 -0.352518 12.953794
C 6.089278 5.035041 1.531772
C 6.221361 4.205881 3.027129
C 5.010607 3.128399 0.751218
C 5.441104 2.050843 3.821838
C 6.089278 5.035041 6.097750
C 6.221361 4.205881 7.593108
C 5.010607 3.128399 5.317196
C 5.441104 2.050843 8.387816
C 6.089278 5.035041 10.663728
C 6.221361 4.205881 12.159086
C 5.010607 3.128399 9.883174
C 5.441104 2.050843 12.953794
C 5.706428 7.438401 1.531772
C 5.838511 6.609242 3.027129
C 4.627757 5.531760 0.751218
C 5.058254 4.454204 3.821838
C 5.706428 7.438401 6.097750
C 5.838511 6.609242 7.593108
C 4.627757 5.531760 5.317196
C 5.058254 4.454204 8.387816
C 5.706428 7.438401 10.663728
C 5.838511 6.609242 12.159086
C 4.627757 5.531760 9.883174
C 5.058254 4.454204 12.953794
