108
A
C 2.802181 1.644275 1.105059
C 2.674394 1.569291 3.761738
C 1.414783 0.830068 1.436981
C 0.410742 0.241120 4.289256
C 2.802181 1.644275 7.217010
C 2.674394 1.569291 9.873689
C 1.414783 0.830068 7.548931
C 0.410742 0.241120 10.401207
C 2.802181 1.644275 13.328960
C 2.674394 1.569291 15.985639
C 1.414783 0.830068 13.660882
C 0.410742 0.241120 16.513158
C 3.998709 3.786652 0.085767
C 3.870922 3.711669 2.742446
C 2.611312 2.972446 0.417688
C 1.607270 2.383498 3.269964
C 3.998709 3.786652 6.197717
C 3.870922 3.711669 8.854396
C 2.611312 2.972446 6.529639
C 1.607270 2.383498 9.381915
C 3.998709 3.786652 12.309668
C 3.870922 3.711669 14.966347
C 2.611312 2.972446 12.641590
C 1.607270 2.383498 15.493865
C 5.195237 5.929029 -0.933526
C 5.067451 5.854046 1.723153
C 3.807840 5.114823 -0.601604
C 2.803798 4.525875 2.250672
C 5.195237 5.929029 5.178425
C 5.067451 5.854046 7.835104
C 3.807840 5.114823 5.510347
C 2.803798 4.525875 8.362622
C 5.195237 5.929029 11.290376
C 5.067451 5.854046 13.947055
C 3.807840 5.114823 11.622298
C 2.803798 4.525875 14.474573
C 5.256703 1.644275 1.308917
C 5.128916 1.569291 3.965596
C 3.869305 0.830068 1.640839
C 2.865264 0.241120 4.493115
C 5.256703 1.644275 7.420868
C 5.128916 1.569291 10.077547
C 3.869305 0.830068 7.752790
C 2.865264 0.241120 10.605065
C 5.256703 1.644275 13.532819
C 5.128916 1.569291 16.189498
C 3.869305 0.830068 13.864741
C 2.865264 0.241120 16.717016
C 6.453231 3.786652 0.289625
C 6.325444 3.711669 2.946304
C 5.065834 2.972446 0.621547
C 4.061792 2.383498 3.473822
C 6.453231 3.786652 6.401576
C 6.325444 3.711669 9.058255
C 5.065834 2.972446 6.733498
C 4.061792 2.383498 9.585773
C 6.453231 3.786652 12.513527
C 6.325444 3.711669 15.170206
C 5.065834 2.972446 12.845448
C 4.061792 2.383498 15.697724
C 7.649759 5.929029 -0.729667
C 7.521973 5.854046 1.927012
C 6.262362 5.114823 -0.397745
C 5.258320 4.525875 2.454530
C 7.649759 5.929029 5.382284
C 7.521973 5.854046 8.038963
C 6.262362 5.114823 5.714205
C 5.258320 4.525875 8.566481
C 7.649759 5.929029 11.494234
C 7.521973 5.854046 14.150913
C 6.262362 5.114823 11.826156
C 5.258320 4.525875 14.678432
C 7.711225 1.644275 1.512776
C 7.583438 1.569291 4.169455
C 6.323827 0.830068 1.844698
C 5.319786 0.241120 4.696973
C 7.711225 1.644275 7.624727
C 7.583438 1.569291 10.281406
C 6.323827 0.830068 7.956648
C 5.319786 0.241120 10.808924
C 7.711225 1.644275 13.736677
C 7.583438 1.569291 16.393356
C 6.323827 0.830068 14.068599
C 5.319786 0.241120 16.920875
C 8.907753 3.786652 0.493484
C 8.779966 3.711669 3.150163
C 7.520356 2.972446 0.825405
C 6.516314 2.383498 3.677681
C 8.907753 3.786652 6.605434
C 8.779966 3.711669 9.262113
C 7.520356 2.972446 6.937356
C 6.516314 2.383498 9.789632
C 8.907753 3.786652 12.717385
C 8.779966 3.711669 15.374064
C 7.520356 2.972446 13.049307
C 6.516314 2.383498 15.901582
C 10.104281 5.929029 -0.525809
C 9.976495 5.854046 2.130870
C 8.716884 5.114823 -0.193887
C 7.712842 4.525875 2.658389
C 10.104281 5.929029 5.586142
C 9.976495 5.854046 8.242821
C 8.716884 5.114823 5.918064
C 7.712842 4.525875 8.770339
C 10.104281 5.929029 11.698093
C 9.976495 5.854046 14.354772
C 8.716884 5.114823 12.030015
C 7.712842 4.525875 14.882290
