108
A
C 1.155822 2.162592 1.644529
C 1.302725 1.716343 3.871539
C 0.104555 0.804821 1.121943
C 0.910832 -0.106841 4.427877
C 1.155822 2.162592 7.177474
C 1.302725 1.716343 9.404484
C 0.104555 0.804821 6.654887
C 0.910832 -0.106841 9.960821
C 1.155822 2.162592 12.710418
C 1.302725 1.716343 14.937428
C 0.104555 0.804821 12.187831
C 0.910832 -0.106841 15.493765
C 0.402472 4.451049 1.644529
C 0.549375 4.004800 3.871539
C -0.648795 3.093278 1.121943
C 0.157482 2.181616 4.427877
C 0.402472 4.451049 7.177474
C 0.549375 4.004800 9.404484
C -0.648795 3.093278 6.654887
C 0.157482 2.181616 9.960821
C 0.402472 4.451049 12.710418
C 0.549375 4.004800 14.937428
C -0.648795 3.093278 12.187831
C 0.157482 2.181616 15.493765
C -0.350878 6.739507 1.644529
C -0.203975 6.293257 3.871539
C -1.402145 5.381735 1.121943
C -0.595868 4.470073 4.427877
C -0.350878 6.739507 7.177474
C -0.203975 6.293257 9.404484
C -1.402145 5.381735 6.654887
C -0.595868 4.470073 9.960821
C -0.350878 6.739507 12.710418
C -0.203975 6.293257 14.937428
C -1.402145 5.381735 12.187831
C -0.595868 4.470073 15.493765
C 3.646139 2.162592 1.644529
C 3.793042 1.716343 3.871539
C 2.594872 0.804821 1.121943
C 3.401149 -0.106841 4.427877
C 3.646139 2.162592 7.177474
C 3.793042 1.716343 9.404484
C 2.594872 0.804821 6.654887
C 3.401149 -0.106841 9.960821
C 3.646139 2.162592 12.710418
C 3.793042 1.716343 14.937428
C 2.594872 0.804821 12.187831
C 3.401149 -0.106841 15.493765
C 2.892789 4.451049 1.644529
C 3.039692 4.004800 3.871539
C 1.841522 3.093278 1.121943
C 2.647799 2.181616 4.427877
C 2.892789 4.451049 7.177474
C 3.039692 4.004800 9.404484
C 1.841522 3.093278 6.654887
C 2.647799 2.181616 9.960821
C 2.892789 4.451049 12.710418
C 3.039692 4.004800 14.937428
C 1.841522 3.093278 12.187831
C 2.647799 2.181616 15.493765
C 2.139439 6.739507 1.644529
C 2.286342 6.293257 3.871539
C 1.088172 5.381735 1.121943
C 1.894449 4.470073 4.427877
C 2.139439 6.739507 7.177474
C 2.286342 6.293257 9.404484
C 1.088172 5.381735 6.654887
C 1.894449 4.470073 9.960821
C 2.139439 6.739507 12.710418
C 2.286342 6.293257 14.937428
C 1.088172 5.381735 12.187831
C 1.894449 4.470073 15.493765
C 6.136455 2.162592 1.644529
C 6.283359 1.716343 3.871539
C 5.085188 0.804821 1.121943
C 5.891465 -0.106841 4.427877
C 6.136455 2.162592 7.177474
C 6.283359 1.716343 9.404484
C 5.085188 0.804821 6.654887
C 5.891465 -0.106841 9.960821
C 6.136455 2.162592 12.710418
C 6.283359 1.716343 14.937428
C 5.085188 0.804821 12.187831
C 5.891465 -0.106841 15.493765
C 5.383105 4.451049 1.644529
C 5.530009 4.004800 3.871539
C 4.331838 3.093278 1.121943
C 5.138115 2.181616 4.427877
C 5.383105 4.451049 7.177474
C 5.530009 4.004800 9.404484
C 4.331838 3.093278 6.654887
C 5.138115 2.181616 9.960821
C 5.383105 4.451049 12.710418
C 5.530009 4.004800 14.937428
C 4.331838 3.093278 12.187831
C 5.138115 2.181616 15.493765
C 4.629755 6.739507 1.644529
C 4.776659 6.293257 3.871539
C 3.578488 5.381735 1.121943
C 4.384765 4.470073 4.427877
C 4.629755 6.739507 7.177474
C 4.776659 6.293257 9.404484
C 3.578488 5.381735 6.654887
C 4.384765 4.470073 9.960821
C 4.629755 6.739507 12.710418
C 4.776659 6.293257 14.937428
C 3.578488 5.381735 12.187831
C 4.384765 4.470073 15.493765
