108
A
C 1.065177 1.984609 1.668920
C 1.186887 1.681872 4.229204
C -0.016189 0.833516 1.290945
C 0.929156 -0.015005 4.650392
C 1.065177 1.984609 7.588651
C 1.186887 1.681872 10.148934
C -0.016189 0.833516 7.210676
C 0.929156 -0.015005 10.570123
C 1.065177 1.984609 13.508381
C 1.186887 1.681872 16.068665
C -0.016189 0.833516 13.130406
C 0.929156 -0.015005 16.489854
C 0.163627 4.227105 1.668920
C 0.285337 3.924368 4.229204
C -0.917739 3.076011 1.290945
C 0.027606 2.227491 4.650392
C 0.163627 4.227105 7.588651
C 0.285337 3.924368 10.148934
C -0.917739 3.076011 7.210676
C 0.027606 2.227491 10.570123
C 0.163627 4.227105 13.508381
C 0.285337 3.924368 16.068665
C -0.917739 3.076011 13.130406
C 0.027606 2.227491 16.489854
C -0.737923 6.469601 1.668920
C -0.616213 6.166864 4.229204
C -1.819289 5.318507 1.290945
C -0.873944 4.469987 4.650392
C -0.737923 6.469601 7.588651
C -0.616213 6.166864 10.148934
C -1.819289 5.318507 7.210676
C -0.873944 4.469987 10.570123
C -0.737923 6.469601 13.508381
C -0.616213 6.166864 16.068665
C -1.819289 5.318507 13.130406
C -0.873944 4.469987 16.489854
C 3.549243 1.984609 1.668920
C 3.670952 1.681872 4.229204
C 2.467877 0.833516 1.290945
C 3.413221 -0.015005 4.650392
C 3.549243 1.984609 7.588651
C 3.670952 1.681872 10.148934
C 2.467877 0.833516 7.210676
C 3.413221 -0.015005 10.570123
C 3.549243 1.984609 13.508381
C 3.670952 1.681872 16.068665
C 2.467877 0.833516 13.130406
C 3.413221 -0.015005 16.489854
C 2.647693 4.227105 1.668920
C 2.769402 3.924368 4.229204
C 1.566327 3.076011 1.290945
C 2.511671 2.227491 4.650392
C 2.647693 4.227105 7.588651
C 2.769402 3.924368 10.148934
C 1.566327 3.076011 7.210676
C 2.511671 2.227491 10.570123
C 2.647693 4.227105 13.508381
C 2.769402 3.924368 16.068665
C 1.566327 3.076011 13.130406
C 2.511671 2.227491 16.489854
C 1.746143 6.469601 1.668920
C 1.867852 6.166864 4.229204
C 0.664777 5.318507 1.290945
C 1.610121 4.469987 4.650392
C 1.746143 6.469601 7.588651
C 1.867852 6.166864 10.148934
C 0.664777 5.318507 7.210676
C 1.610121 4.469987 10.570123
C 1.746143 6.469601 13.508381
C 1.867852 6.166864 16.068665
C 0.664777 5.318507 13.130406
C 1.610121 4.469987 16.489854
C 6.033308 1.984609 1.668920
C 6.155018 1.681872 4.229204
C 4.951942 0.833516 1.290945
C 5.897287 -0.015005 4.650392
C 6.033308 1.984609 7.588651
C 6.155018 1.681872 10.148934
C 4.951942 0.833516 7.210676
C 5.897287 -0.015005 10.570123
C 6.033308 1.984609 13.508381
C 6.155018 1.681872 16.068665
C 4.951942 0.833516 13.130406
C 5.897287 -0.015005 16.489854
C 5.131758 4.227105 1.668920
C 5.253468 3.924368 4.229204
C 4.050392 3.076011 1.290945
C 4.995737 2.227491 4.650392
C 5.131758 4.227105 7.588651
C 5.253468 3.924368 10.148934
C 4.050392 3.076011 7.210676
C 4.995737 2.227491 10.570123
C 5.131758 4.227105 13.508381
C 5.253468 3.924368 16.068665
C 4.050392 3.076011 13.130406
C 4.995737 2.227491 16.489854
C 4.230208 6.469601 1.668920
C 4.351918 6.166864 4.229204
C 3.148842 5.318507 1.290945
C 4.094187 4.469987 4.650392
C 4.230208 6.469601 7.588651
C 4.351918 6.166864 10.148934
C 3.148842 5.318507 7.210676
C 4.094187 4.469987 10.570123
C 4.230208 6.469601 13.508381
C 4.351918 6.166864 16.068665
C 3.148842 5.318507 13.130406
C 4.094187 4.469987 16.489854
