108
A
C 1.346416 2.471487 1.577577
C 1.495789 1.773795 3.300703
C 0.293174 0.752910 0.866573
C 0.853392 -0.268072 4.031748
C 1.346416 2.471487 6.465877
C 1.495789 1.773795 8.189003
C 0.293174 0.752910 5.754874
C 0.853392 -0.268072 8.920048
C 1.346416 2.471487 11.354177
C 1.495789 1.773795 13.077303
C 0.293174 0.752910 10.643174
C 0.853392 -0.268072 13.808348
C 0.840066 4.836547 1.577577
C 0.989439 4.138854 3.300703
C -0.213176 3.117969 0.866573
C 0.347042 2.096987 4.031748
C 0.840066 4.836547 6.465877
C 0.989439 4.138854 8.189003
C -0.213176 3.117969 5.754874
C 0.347042 2.096987 8.920048
C 0.840066 4.836547 11.354177
C 0.989439 4.138854 13.077303
C -0.213176 3.117969 10.643174
C 0.347042 2.096987 13.808348
C 0.333716 7.201606 1.577577
C 0.483089 6.503914 3.300703
C -0.719526 5.483029 0.866573
C -0.159308 4.462047 4.031748
C 0.333716 7.201606 6.465877
C 0.483089 6.503914 8.189003
C -0.719526 5.483029 5.754874
C -0.159308 4.462047 8.920048
C 0.333716 7.201606 11.354177
C 0.483089 6.503914 13.077303
C -0.719526 5.483029 10.643174
C -0.159308 4.462047 13.808348
C 3.847152 2.471487 1.577577
C 3.996525 1.773795 3.300703
C 2.793909 0.752910 0.866573
C 3.354128 -0.268072 4.031748
C 3.847152 2.471487 6.465877
C 3.996525 1.773795 8.189003
C 2.793909 0.752910 5.754874
C 3.354128 -0.268072 8.920048
C 3.847152 2.471487 11.354177
C 3.996525 1.773795 13.077303
C 2.793909 0.752910 10.643174
C 3.354128 -0.268072 13.808348
C 3.340802 4.836547 1.577577
C 3.490175 4.138854 3.300703
C 2.287559 3.117969 0.866573
C 2.847778 2.096987 4.031748
C 3.340802 4.836547 6.465877
C 3.490175 4.138854 8.189003
C 2.287559 3.117969 5.754874
C 2.847778 2.096987 8.920048
C 3.340802 4.836547 11.354177
C 3.490175 4.138854 13.077303
C 2.287559 3.117969 10.643174
C 2.847778 2.096987 13.808348
C 2.834452 7.201606 1.577577
C 2.983825 6.503914 3.300703
C 1.781209 5.483029 0.866573
C 2.341428 4.462047 4.031748
C 2.834452 7.201606 6.465877
C 2.983825 6.503914 8.189003
C 1.781209 5.483029 5.754874
C 2.341428 4.462047 8.920048
C 2.834452 7.201606 11.354177
C 2.983825 6.503914 13.077303
C 1.781209 5.483029 10.643174
C 2.341428 4.462047 13.808348
C 6.347887 2.471487 1.577577
C 6.497261 1.773795 3.300703
C 5.294645 0.752910 0.866573
C 5.854864 -0.268072 4.031748
C 6.347887 2.471487 6.465877
C 6.497261 1.773795 8.189003
C 5.294645 0.752910 5.754874
C 5.854864 -0.268072 8.920048
C 6.347887 2.471487 11.354177
C 6.497261 1.773795 13.077303
C 5.294645 0.752910 10.643174
C 5.854864 -0.268072 13.808348
C 5.841537 4.836547 1.577577
C 5.990911 4.138854 3.300703
C 4.788295 3.117969 0.866573
C 5.348514 2.096987 4.031748
C 5.841537 4.836547 6.465877
C 5.990911 4.138854 8.189003
C 4.788295 3.117969 5.754874
C 5.348514 2.096987 8.920048
C 5.841537 4.836547 11.354177
C 5.990911 4.138854 13.077303
C 4.788295 3.117969 10.643174
C 5.348514 2.096987 13.808348
C 5.335187 7.201606 1.577577
C 5.484561 6.503914 3.300703
C 4.281945 5.483029 0.866573
C 4.842164 4.462047 4.031748
C 5.335187 7.201606 6.465877
C 5.484561 6.503914 8.189003
C 4.281945 5.483029 5.754874
C 4.842164 4.462047 8.920048
C 5.335187 7.201606 11.354177
C 5.484561 6.503914 13.077303
C 4.281945 5.483029 10.643174
C 4.842164 4.462047 13.808348
