108
A
C 1.115892 2.087762 1.656130
C 1.254459 1.701980 4.019184
C 0.054935 0.817000 1.190922
C 0.919938 -0.068129 4.521974
C 1.115892 2.087762 7.350236
C 1.254459 1.701980 9.713289
C 0.054935 0.817000 6.885027
C 0.919938 -0.068129 10.216079
C 1.115892 2.087762 13.044341
C 1.254459 1.701980 15.407395
C 0.054935 0.817000 12.579133
C 0.919938 -0.068129 15.910184
C 0.300792 4.357069 1.656130
C 0.439359 3.971287 4.019184
C -0.760165 3.086307 1.190922
C 0.104838 2.201178 4.521974
C 0.300792 4.357069 7.350236
C 0.439359 3.971287 9.713289
C -0.760165 3.086307 6.885027
C 0.104838 2.201178 10.216079
C 0.300792 4.357069 13.044341
C 0.439359 3.971287 15.407395
C -0.760165 3.086307 12.579133
C 0.104838 2.201178 15.910184
C -0.514308 6.626376 1.656130
C -0.375741 6.240593 4.019184
C -1.575265 5.355614 1.190922
C -0.710262 4.470484 4.521974
C -0.514308 6.626376 7.350236
C -0.375741 6.240593 9.713289
C -1.575265 5.355614 6.885027
C -0.710262 4.470484 10.216079
C -0.514308 6.626376 13.044341
C -0.375741 6.240593 15.407395
C -1.575265 5.355614 12.579133
C -0.710262 4.470484 15.910184
C 3.603604 2.087762 1.656130
C 3.742171 1.701980 4.019184
C 2.542647 0.817000 1.190922
C 3.407650 -0.068129 4.521974
C 3.603604 2.087762 7.350236
C 3.742171 1.701980 9.713289
C 2.542647 0.817000 6.885027
C 3.407650 -0.068129 10.216079
C 3.603604 2.087762 13.044341
C 3.742171 1.701980 15.407395
C 2.542647 0.817000 12.579133
C 3.407650 -0.068129 15.910184
C 2.788504 4.357069 1.656130
C 2.927071 3.971287 4.019184
C 1.727547 3.086307 1.190922
C 2.592550 2.201178 4.521974
C 2.788504 4.357069 7.350236
C 2.927071 3.971287 9.713289
C 1.727547 3.086307 6.885027
C 2.592550 2.201178 10.216079
C 2.788504 4.357069 13.044341
C 2.927071 3.971287 15.407395
C 1.727547 3.086307 12.579133
C 2.592550 2.201178 15.910184
C 1.973404 6.626376 1.656130
C 2.111971 6.240593 4.019184
C 0.912447 5.355614 1.190922
C 1.777450 4.470484 4.521974
C 1.973404 6.626376 7.350236
C 2.111971 6.240593 9.713289
C 0.912447 5.355614 6.885027
C 1.777450 4.470484 10.216079
C 1.973404 6.626376 13.044341
C 2.111971 6.240593 15.407395
C 0.912447 5.355614 12.579133
C 1.777450 4.470484 15.910184
C 6.091316 2.087762 1.656130
C 6.229883 1.701980 4.019184
C 5.030359 0.817000 1.190922
C 5.895362 -0.068129 4.521974
C 6.091316 2.087762 7.350236
C 6.229883 1.701980 9.713289
C 5.030359 0.817000 6.885027
C 5.895362 -0.068129 10.216079
C 6.091316 2.087762 13.044341
C 6.229883 1.701980 15.407395
C 5.030359 0.817000 12.579133
C 5.895362 -0.068129 15.910184
C 5.276216 4.357069 1.656130
C 5.414783 3.971287 4.019184
C 4.215259 3.086307 1.190922
C 5.080262 2.201178 4.521974
C 5.276216 4.357069 7.350236
C 5.414783 3.971287 9.713289
C 4.215259 3.086307 6.885027
C 5.080262 2.201178 10.216079
C 5.276216 4.357069 13.044341
C 5.414783 3.971287 15.407395
C 4.215259 3.086307 12.579133
C 5.080262 2.201178 15.910184
C 4.461116 6.626376 1.656130
C 4.599683 6.240593 4.019184
C 3.400159 5.355614 1.190922
C 4.265162 4.470484 4.521974
C 4.461116 6.626376 7.350236
C 4.599683 6.240593 9.713289
C 3.400159 5.355614 6.885027
C 4.265162 4.470484 10.216079
C 4.461116 6.626376 13.044341
C 4.599683 6.240593 15.407395
C 3.400159 5.355614 12.579133
C 4.265162 4.470484 15.910184
