108
A
C 0.992317 1.812141 1.681475
C 1.071048 1.647401 4.598239
C -0.142612 0.860372 1.471783
C 0.935375 0.073156 4.861536
C 0.992317 1.812141 7.987992
C 1.071048 1.647401 10.904756
C -0.142612 0.860372 7.778300
C 0.935375 0.073156 11.168053
C 0.992317 1.812141 14.294509
C 1.071048 1.647401 17.211273
C -0.142612 0.860372 14.084817
C 0.935375 0.073156 17.474570
C -0.057433 4.008675 1.681475
C 0.021298 3.843935 4.598239
C -1.192362 3.056906 1.471783
C -0.114375 2.269690 4.861536
C -0.057433 4.008675 7.987992
C 0.021298 3.843935 10.904756
C -1.192362 3.056906 7.778300
C -0.114375 2.269690 11.168053
C -0.057433 4.008675 14.294509
C 0.021298 3.843935 17.211273
C -1.192362 3.056906 14.084817
C -0.114375 2.269690 17.474570
C -1.107183 6.205210 1.681475
C -1.028452 6.040470 4.598239
C -2.242112 5.253441 1.471783
C -1.164125 4.466225 4.861536
C -1.107183 6.205210 7.987992
C -1.028452 6.040470 10.904756
C -2.242112 5.253441 7.778300
C -1.164125 4.466225 11.168053
C -1.107183 6.205210 14.294509
C -1.028452 6.040470 17.211273
C -2.242112 5.253441 14.084817
C -1.164125 4.466225 17.474570
C 3.470131 1.812141 1.681475
C 3.548862 1.647401 4.598239
C 2.335203 0.860372 1.471783
C 3.413189 0.073156 4.861536
C 3.470131 1.812141 7.987992
C 3.548862 1.647401 10.904756
C 2.335203 0.860372 7.778300
C 3.413189 0.073156 11.168053
C 3.470131 1.812141 14.294509
C 3.548862 1.647401 17.211273
C 2.335203 0.860372 14.084817
C 3.413189 0.073156 17.474570
C 2.420381 4.008675 1.681475
C 2.499112 3.843935 4.598239
C 1.285453 3.056906 1.471783
C 2.363439 2.269690 4.861536
C 2.420381 4.008675 7.987992
C 2.499112 3.843935 10.904756
C 1.285453 3.056906 7.778300
C 2.363439 2.269690 11.168053
C 2.420381 4.008675 14.294509
C 2.499112 3.843935 17.211273
C 1.285453 3.056906 14.084817
C 2.363439 2.269690 17.474570
C 1.370631 6.205210 1.681475
C 1.449362 6.040470 4.598239
C 0.235703 5.253441 1.471783
C 1.313689 4.466225 4.861536
C 1.370631 6.205210 7.987992
C 1.449362 6.040470 10.904756
C 0.235703 5.253441 7.778300
C 1.313689 4.466225 11.168053
C 1.370631 6.205210 14.294509
C 1.449362 6.040470 17.211273
C 0.235703 5.253441 14.084817
C 1.313689 4.466225 17.474570
C 5.947945 1.812141 1.681475
C 6.026676 1.647401 4.598239
C 4.813017 0.860372 1.471783
C 5.891003 0.073156 4.861536
C 5.947945 1.812141 7.987992
C 6.026676 1.647401 10.904756
C 4.813017 0.860372 7.778300
C 5.891003 0.073156 11.168053
C 5.947945 1.812141 14.294509
C 6.026676 1.647401 17.211273
C 4.813017 0.860372 14.084817
C 5.891003 0.073156 17.474570
C 4.898195 4.008675 1.681475
C 4.976926 3.843935 4.598239
C 3.763267 3.056906 1.471783
C 4.841253 2.269690 4.861536
C 4.898195 4.008675 7.987992
C 4.976926 3.843935 10.904756
C 3.763267 3.056906 7.778300
C 4.841253 2.269690 11.168053
C 4.898195 4.008675 14.294509
C 4.976926 3.843935 17.211273
C 3.763267 3.056906 14.084817
C 4.841253 2.269690 17.474570
C 3.848445 6.205210 1.681475
C 3.927176 6.040470 4.598239
C 2.713517 5.253441 1.471783
C 3.791503 4.466225 4.861536
C 3.848445 6.205210 7.987992
C 3.927176 6.040470 10.904756
C 2.713517 5.253441 7.778300
C 3.791503 4.466225 11.168053
C 3.848445 6.205210 14.294509
C 3.927176 6.040470 17.211273
C 2.713517 5.253441 14.084817
C 3.791503 4.466225 17.474570
