108
A
C 1.123631 2.102652 1.653975
C 1.264112 1.704853 3.989497
C 0.064938 0.814590 1.176962
C 0.918285 -0.075820 4.503312
C 1.123631 2.102652 7.315848
C 1.264112 1.704853 9.651370
C 0.064938 0.814590 6.838835
C 0.918285 -0.075820 10.165185
C 1.123631 2.102652 12.977721
C 1.264112 1.704853 15.313243
C 0.064938 0.814590 12.500708
C 0.918285 -0.075820 15.827058
C 0.320881 4.375788 1.653975
C 0.461362 3.977989 3.989497
C -0.737812 3.087727 1.176962
C 0.115535 2.197316 4.503312
C 0.320881 4.375788 7.315848
C 0.461362 3.977989 9.651370
C -0.737812 3.087727 6.838835
C 0.115535 2.197316 10.165185
C 0.320881 4.375788 12.977721
C 0.461362 3.977989 15.313243
C -0.737812 3.087727 12.500708
C 0.115535 2.197316 15.827058
C -0.481869 6.648925 1.653975
C -0.341388 6.251126 3.989497
C -1.540562 5.360864 1.176962
C -0.687215 4.470453 4.503312
C -0.481869 6.648925 7.315848
C -0.341388 6.251126 9.651370
C -1.540562 5.360864 6.838835
C -0.687215 4.470453 10.165185
C -0.481869 6.648925 12.977721
C -0.341388 6.251126 15.313243
C -1.540562 5.360864 12.500708
C -0.687215 4.470453 15.827058
C 3.611864 2.102652 1.653975
C 3.752345 1.704853 3.989497
C 2.553171 0.814590 1.176962
C 3.406518 -0.075820 4.503312
C 3.611864 2.102652 7.315848
C 3.752345 1.704853 9.651370
C 2.553171 0.814590 6.838835
C 3.406518 -0.075820 10.165185
C 3.611864 2.102652 12.977721
C 3.752345 1.704853 15.313243
C 2.553171 0.814590 12.500708
C 3.406518 -0.075820 15.827058
C 2.809114 4.375788 1.653975
C 2.949595 3.977989 3.989497
C 1.750421 3.087727 1.176962
C 2.603768 2.197316 4.503312
C 2.809114 4.375788 7.315848
C 2.949595 3.977989 9.651370
C 1.750421 3.087727 6.838835
C 2.603768 2.197316 10.165185
C 2.809114 4.375788 12.977721
C 2.949595 3.977989 15.313243
C 1.750421 3.087727 12.500708
C 2.603768 2.197316 15.827058
C 2.006364 6.648925 1.653975
C 2.146845 6.251126 3.989497
C 0.947671 5.360864 1.176962
C 1.801018 4.470453 4.503312
C 2.006364 6.648925 7.315848
C 2.146845 6.251126 9.651370
C 0.947671 5.360864 6.838835
C 1.801018 4.470453 10.165185
C 2.006364 6.648925 12.977721
C 2.146845 6.251126 15.313243
C 0.947671 5.360864 12.500708
C 1.801018 4.470453 15.827058
C 6.100097 2.102652 1.653975
C 6.240578 1.704853 3.989497
C 5.041404 0.814590 1.176962
C 5.894751 -0.075820 4.503312
C 6.100097 2.102652 7.315848
C 6.240578 1.704853 9.651370
C 5.041404 0.814590 6.838835
C 5.894751 -0.075820 10.165185
C 6.100097 2.102652 12.977721
C 6.240578 1.704853 15.313243
C 5.041404 0.814590 12.500708
C 5.894751 -0.075820 15.827058
C 5.297347 4.375788 1.653975
C 5.437828 3.977989 3.989497
C 4.238654 3.087727 1.176962
C 5.092001 2.197316 4.503312
C 5.297347 4.375788 7.315848
C 5.437828 3.977989 9.651370
C 4.238654 3.087727 6.838835
C 5.092001 2.197316 10.165185
C 5.297347 4.375788 12.977721
C 5.437828 3.977989 15.313243
C 4.238654 3.087727 12.500708
C 5.092001 2.197316 15.827058
C 4.494597 6.648925 1.653975
C 4.635078 6.251126 3.989497
C 3.435904 5.360864 1.176962
C 4.289251 4.470453 4.503312
C 4.494597 6.648925 7.315848
C 4.635078 6.251126 9.651370
C 3.435904 5.360864 6.838835
C 4.289251 4.470453 10.165185
C 4.494597 6.648925 12.977721
C 4.635078 6.251126 15.313243
C 3.435904 5.360864 12.500708
C 4.289251 4.470453 15.827058
