108
A
C 1.472300 2.647910 1.526739
C 1.601975 1.805393 3.000206
C 0.390190 0.722181 0.740134
C 0.807468 -0.361103 3.800413
C 1.472300 2.647910 6.060485
C 1.601975 1.805393 7.533952
C 0.390190 0.722181 5.273880
C 0.807468 -0.361103 8.334159
C 1.472300 2.647910 10.594231
C 1.601975 1.805393 12.067698
C 0.390190 0.722181 9.807626
C 0.807468 -0.361103 12.867905
C 1.101800 5.055101 1.526739
C 1.231475 4.212584 3.000206
C 0.019690 3.129372 0.740134
C 0.436968 2.046088 3.800413
C 1.101800 5.055101 6.060485
C 1.231475 4.212584 7.533952
C 0.019690 3.129372 5.273880
C 0.436968 2.046088 8.334159
C 1.101800 5.055101 10.594231
C 1.231475 4.212584 12.067698
C 0.019690 3.129372 9.807626
C 0.436968 2.046088 12.867905
C 0.731300 7.462292 1.526739
C 0.860975 6.619775 3.000206
C -0.350810 5.536563 0.740134
C 0.066468 4.453279 3.800413
C 0.731300 7.462292 6.060485
C 0.860975 6.619775 7.533952
C -0.350810 5.536563 5.273880
C 0.066468 4.453279 8.334159
C 0.731300 7.462292 10.594231
C 0.860975 6.619775 12.067698
C -0.350810 5.536563 9.807626
C 0.066468 4.453279 12.867905
C 3.978766 2.647910 1.526739
C 4.108441 1.805393 3.000206
C 2.896656 0.722181 0.740134
C 3.313934 -0.361103 3.800413
C 3.978766 2.647910 6.060485
C 4.108441 1.805393 7.533952
C 2.896656 0.722181 5.273880
C 3.313934 -0.361103 8.334159
C 3.978766 2.647910 10.594231
C 4.108441 1.805393 12.067698
C 2.896656 0.722181 9.807626
C 3.313934 -0.361103 12.867905
C 3.608266 5.055101 1.526739
C 3.737941 4.212584 3.000206
C 2.526156 3.129372 0.740134
C 2.943434 2.046088 3.800413
C 3.608266 5.055101 6.060485
C 3.737941 4.212584 7.533952
C 2.526156 3.129372 5.273880
C 2.943434 2.046088 8.334159
C 3.608266 5.055101 10.594231
C 3.737941 4.212584 12.067698
C 2.526156 3.129372 9.807626
C 2.943434 2.046088 12.867905
C 3.237766 7.462292 1.526739
C 3.367441 6.619775 3.000206
C 2.155656 5.536563 0.740134
C 2.572934 4.453279 3.800413
C 3.237766 7.462292 6.060485
C 3.367441 6.619775 7.533952
C 2.155656 5.536563 5.273880
C 2.572934 4.453279 8.334159
C 3.237766 7.462292 10.594231
C 3.367441 6.619775 12.067698
C 2.155656 5.536563 9.807626
C 2.572934 4.453279 12.867905
C 6.485232 2.647910 1.526739
C 6.614907 1.805393 3.000206
C 5.403122 0.722181 0.740134
C 5.820400 -0.361103 3.800413
C 6.485232 2.647910 6.060485
C 6.614907 1.805393 7.533952
C 5.403122 0.722181 5.273880
C 5.820400 -0.361103 8.334159
C 6.485232 2.647910 10.594231
C 6.614907 1.805393 12.067698
C 5.403122 0.722181 9.807626
C 5.820400 -0.361103 12.867905
C 6.114732 5.055101 1.526739
C 6.244407 4.212584 3.000206
C 5.032622 3.129372 0.740134
C 5.449900 2.046088 3.800413
C 6.114732 5.055101 6.060485
C 6.244407 4.212584 7.533952
C 5.032622 3.129372 5.273880
C 5.449900 2.046088 8.334159
C 6.114732 5.055101 10.594231
C 6.244407 4.212584 12.067698
C 5.032622 3.129372 9.807626
C 5.449900 2.046088 12.867905
C 5.744232 7.462292 1.526739
C 5.873907 6.619775 3.000206
C 4.662122 5.536563 0.740134
C 5.079400 4.453279 3.800413
C 5.744232 7.462292 6.060485
C 5.873907 6.619775 7.533952
C 4.662122 5.536563 5.273880
C 5.079400 4.453279 8.334159
C 5.744232 7.462292 10.594231
C 5.873907 6.619775 12.067698
C 4.662122 5.536563 9.807626
C 5.079400 4.453279 12.867905
