108
A
C 2.852498 1.744686 -0.670275
C 2.421766 1.481235 0.805633
C 1.106130 0.676544 0.747668
C 0.651957 0.398763 2.242592
C 2.852498 1.744686 3.746553
C 2.421766 1.481235 5.222461
C 1.106130 0.676544 5.164495
C 0.651957 0.398763 6.659420
C 2.852498 1.744686 8.163380
C 2.421766 1.481235 9.639289
C 1.106130 0.676544 9.581323
C 0.651957 0.398763 11.076248
C 3.952846 3.895299 -4.237798
C 3.522115 3.631849 -2.761890
C 2.206479 2.827158 -2.819855
C 1.752306 2.549376 -1.324931
C 3.952846 3.895299 0.179030
C 3.522115 3.631849 1.654938
C 2.206479 2.827158 1.596972
C 1.752306 2.549376 3.091897
C 3.952846 3.895299 4.595857
C 3.522115 3.631849 6.071766
C 2.206479 2.827158 6.013800
C 1.752306 2.549376 7.508725
C 5.053195 6.045913 -7.805321
C 4.622463 5.782463 -6.329413
C 3.306828 4.977772 -6.387378
C 2.852655 4.699990 -4.892454
C 5.053195 6.045913 -3.388493
C 4.622463 5.782463 -1.912585
C 3.306828 4.977772 -1.970551
C 2.852655 4.699990 -0.475626
C 5.053195 6.045913 1.028334
C 4.622463 5.782463 2.504243
C 3.306828 4.977772 2.446277
C 2.852655 4.699990 3.941202
C 5.268325 1.744686 0.043230
C 4.837593 1.481235 1.519138
C 3.521957 0.676544 1.461172
C 3.067784 0.398763 2.956097
C 5.268325 1.744686 4.460057
C 4.837593 1.481235 5.935966
C 3.521957 0.676544 5.878000
C 3.067784 0.398763 7.372925
C 5.268325 1.744686 8.876885
C 4.837593 1.481235 10.352793
C 3.521957 0.676544 10.294828
C 3.067784 0.398763 11.789752
C 6.368673 3.895299 -3.524293
C 5.937942 3.631849 -2.048385
C 4.622306 2.827158 -2.106351
C 4.168133 2.549376 -0.611426
C 6.368673 3.895299 0.892534
C 5.937942 3.631849 2.368443
C 4.622306 2.827158 2.310477
C 4.168133 2.549376 3.805402
C 6.368673 3.895299 5.309362
C 5.937942 3.631849 6.785270
C 4.622306 2.827158 6.727305
C 4.168133 2.549376 8.222229
C 7.469022 6.045913 -7.091816
C 7.038290 5.782463 -5.615908
C 5.722655 4.977772 -5.673874
C 5.268482 4.699990 -4.178949
C 7.469022 6.045913 -2.674989
C 7.038290 5.782463 -1.199080
C 5.722655 4.977772 -1.257046
C 5.268482 4.699990 0.237879
C 7.469022 6.045913 1.741839
C 7.038290 5.782463 3.217747
C 5.722655 4.977772 3.159782
C 5.268482 4.699990 4.654706
C 7.684152 1.744686 0.756734
C 7.253420 1.481235 2.232643
C 5.937785 0.676544 2.174677
C 5.483612 0.398763 3.669602
C 7.684152 1.744686 5.173562
C 7.253420 1.481235 6.649470
C 5.937785 0.676544 6.591505
C 5.483612 0.398763 8.086429
C 7.684152 1.744686 9.590389
C 7.253420 1.481235 11.066298
C 5.937785 0.676544 11.008332
C 5.483612 0.398763 12.503257
C 8.784500 3.895299 -2.810789
C 8.353769 3.631849 -1.334880
C 7.038133 2.827158 -1.392846
C 6.583960 2.549376 0.102079
C 8.784500 3.895299 1.606039
C 8.353769 3.631849 3.081947
C 7.038133 2.827158 3.023982
C 6.583960 2.549376 4.518906
C 8.784500 3.895299 6.022866
C 8.353769 3.631849 7.498775
C 7.038133 2.827158 7.440809
C 6.583960 2.549376 8.935734
C 9.884849 6.045913 -6.378312
C 9.454117 5.782463 -4.902403
C 8.138482 4.977772 -4.960369
C 7.684309 4.699990 -3.465444
C 9.884849 6.045913 -1.961484
C 9.454117 5.782463 -0.485576
C 8.138482 4.977772 -0.543541
C 7.684309 4.699990 0.951383
C 9.884849 6.045913 2.455343
C 9.454117 5.782463 3.931252
C 8.138482 4.977772 3.873286
C 7.684309 4.699990 5.368211
