108
A
C 0.000000 1.261047 2.675085
C 0.000000 0.000000 0.000000
C 1.261047 0.000000 0.891695
C 1.261047 1.261047 1.783390
C 0.000000 1.261047 6.241865
C 0.000000 0.000000 3.566780
C 1.261047 0.000000 4.458475
C 1.261047 1.261047 5.350170
C 0.000000 1.261047 9.808645
C 0.000000 0.000000 7.133560
C 1.261047 0.000000 8.025255
C 1.261047 1.261047 8.916950
C 0.000000 3.783141 2.675085
C 0.000000 2.522094 0.000000
C 1.261047 2.522094 0.891695
C 1.261047 3.783141 1.783390
C 0.000000 3.783141 6.241865
C 0.000000 2.522094 3.566780
C 1.261047 2.522094 4.458475
C 1.261047 3.783141 5.350170
C 0.000000 3.783141 9.808645
C 0.000000 2.522094 7.133560
C 1.261047 2.522094 8.025255
C 1.261047 3.783141 8.916950
C 0.000000 6.305236 2.675085
C 0.000000 5.044189 0.000000
C 1.261047 5.044189 0.891695
C 1.261047 6.305236 1.783390
C 0.000000 6.305236 6.241865
C 0.000000 5.044189 3.566780
C 1.261047 5.044189 4.458475
C 1.261047 6.305236 5.350170
C 0.000000 6.305236 9.808645
C 0.000000 5.044189 7.133560
C 1.261047 5.044189 8.025255
C 1.261047 6.305236 8.916950
C 2.522094 1.261047 2.675085
C 2.522094 -0.000000 0.000000
C 3.783141 -0.000000 0.891695
C 3.783141 1.261047 1.783390
C 2.522094 1.261047 6.241865
C 2.522094 -0.000000 3.566780
C 3.783141 -0.000000 4.458475
C 3.783141 1.261047 5.350170
C 2.522094 1.261047 9.808645
C 2.522094 -0.000000 7.133560
C 3.783141 -0.000000 8.025255
C 3.783141 1.261047 8.916950
C 2.522094 3.783141 2.675085
C 2.522094 2.522094 0.000000
C 3.783141 2.522094 0.891695
C 3.783141 3.783141 1.783390
C 2.522094 3.783141 6.241865
C 2.522094 2.522094 3.566780
C 3.783141 2.522094 4.458475
C 3.783141 3.783141 5.350170
C 2.522094 3.783141 9.808645
C 2.522094 2.522094 7.133560
C 3.783141 2.522094 8.025255
C 3.783141 3.783141 8.916950
C 2.522094 6.305236 2.675085
C 2.522094 5.044189 0.000000
C 3.783141 5.044189 0.891695
C 3.783141 6.305236 1.783390
C 2.522094 6.305236 6.241865
C 2.522094 5.044189 3.566780
C 3.783141 5.044189 4.458475
C 3.783141 6.305236 5.350170
C 2.522094 6.305236 9.808645
C 2.522094 5.044189 7.133560
C 3.783141 5.044189 8.025255
C 3.783141 6.305236 8.916950
C 5.044189 1.261047 2.675085
C 5.044189 -0.000000 0.000000
C 6.305236 -0.000000 0.891695
C 6.305236 1.261047 1.783390
C 5.044189 1.261047 6.241865
C 5.044189 -0.000000 3.566780
C 6.305236 -0.000000 4.458475
C 6.305236 1.261047 5.350170
C 5.044189 1.261047 9.808645
C 5.044189 -0.000000 7.133560
C 6.305236 -0.000000 8.025255
C 6.305236 1.261047 8.916950
C 5.044189 3.783141 2.675085
C 5.044189 2.522094 0.000000
C 6.305236 2.522094 0.891695
C 6.305236 3.783141 1.783390
C 5.044189 3.783141 6.241865
C 5.044189 2.522094 3.566780
C 6.305236 2.522094 4.458475
C 6.305236 3.783141 5.350170
C 5.044189 3.783141 9.808645
C 5.044189 2.522094 7.133560
C 6.305236 2.522094 8.025255
C 6.305236 3.783141 8.916950
C 5.044189 6.305236 2.675085
C 5.044189 5.044189 0.000000
C 6.305236 5.044189 0.891695
C 6.305236 6.305236 1.783390
C 5.044189 6.305236 6.241865
C 5.044189 5.044189 3.566780
C 6.305236 5.044189 4.458475
C 6.305236 6.305236 5.350170
C 5.044189 6.305236 9.808645
C 5.044189 5.044189 7.133560
C 6.305236 5.044189 8.025255
C 6.305236 6.305236 8.916950
