108
A
C 1.787950 0.650115 1.463669
C 1.820882 1.950256 2.683290
C 0.502467 1.803037 3.537149
C 0.469536 0.502896 0.609810
C 1.787950 0.650115 5.610629
C 1.820882 1.950256 6.830250
C 0.502467 1.803037 7.684109
C 0.469536 0.502896 4.756770
C 1.787950 0.650115 9.757589
C 1.820882 1.950256 10.977209
C 0.502467 1.803037 11.831068
C 0.469536 0.502896 8.903730
C 1.565650 3.103267 1.463669
C 1.598582 4.403408 2.683290
C 0.280167 4.256190 3.537149
C 0.247236 2.956048 0.609810
C 1.565650 3.103267 5.610629
C 1.598582 4.403408 6.830250
C 0.280167 4.256190 7.684109
C 0.247236 2.956048 4.756770
C 1.565650 3.103267 9.757589
C 1.598582 4.403408 10.977209
C 0.280167 4.256190 11.831068
C 0.247236 2.956048 8.903730
C 1.343350 5.556419 1.463669
C 1.376282 6.856561 2.683290
C 0.057867 6.709342 3.537149
C 0.024936 5.409201 0.609810
C 1.343350 5.556419 5.610629
C 1.376282 6.856561 6.830250
C 0.057867 6.709342 7.684109
C 0.024936 5.409201 4.756770
C 1.343350 5.556419 9.757589
C 1.376282 6.856561 10.977209
C 0.057867 6.709342 11.831068
C 0.024936 5.409201 8.903730
C 4.300668 0.650115 1.463669
C 4.333599 1.950256 2.683290
C 3.015185 1.803037 3.537149
C 2.982253 0.502896 0.609810
C 4.300668 0.650115 5.610629
C 4.333599 1.950256 6.830250
C 3.015185 1.803037 7.684109
C 2.982253 0.502896 4.756770
C 4.300668 0.650115 9.757589
C 4.333599 1.950256 10.977209
C 3.015185 1.803037 11.831068
C 2.982253 0.502896 8.903730
C 4.078368 3.103267 1.463669
C 4.111299 4.403408 2.683290
C 2.792885 4.256190 3.537149
C 2.759953 2.956048 0.609810
C 4.078368 3.103267 5.610629
C 4.111299 4.403408 6.830250
C 2.792885 4.256190 7.684109
C 2.759953 2.956048 4.756770
C 4.078368 3.103267 9.757589
C 4.111299 4.403408 10.977209
C 2.792885 4.256190 11.831068
C 2.759953 2.956048 8.903730
C 3.856068 5.556419 1.463669
C 3.888999 6.856561 2.683290
C 2.570585 6.709342 3.537149
C 2.537653 5.409201 0.609810
C 3.856068 5.556419 5.610629
C 3.888999 6.856561 6.830250
C 2.570585 6.709342 7.684109
C 2.537653 5.409201 4.756770
C 3.856068 5.556419 9.757589
C 3.888999 6.856561 10.977209
C 2.570585 6.709342 11.831068
C 2.537653 5.409201 8.903730
C 6.813385 0.650115 1.463669
C 6.846316 1.950256 2.683290
C 5.527902 1.803037 3.537149
C 5.494970 0.502896 0.609810
C 6.813385 0.650115 5.610629
C 6.846316 1.950256 6.830250
C 5.527902 1.803037 7.684109
C 5.494970 0.502896 4.756770
C 6.813385 0.650115 9.757589
C 6.846316 1.950256 10.977209
C 5.527902 1.803037 11.831068
C 5.494970 0.502896 8.903730
C 6.591085 3.103267 1.463669
C 6.624016 4.403408 2.683290
C 5.305602 4.256190 3.537149
C 5.272670 2.956048 0.609810
C 6.591085 3.103267 5.610629
C 6.624016 4.403408 6.830250
C 5.305602 4.256190 7.684109
C 5.272670 2.956048 4.756770
C 6.591085 3.103267 9.757589
C 6.624016 4.403408 10.977209
C 5.305602 4.256190 11.831068
C 5.272670 2.956048 8.903730
C 6.368785 5.556419 1.463669
C 6.401716 6.856561 2.683290
C 5.083302 6.709342 3.537149
C 5.050370 5.409201 0.609810
C 6.368785 5.556419 5.610629
C 6.401716 6.856561 6.830250
C 5.083302 6.709342 7.684109
C 5.050370 5.409201 4.756770
C 6.368785 5.556419 9.757589
C 6.401716 6.856561 10.977209
C 5.083302 6.709342 11.831068
C 5.050370 5.409201 8.903730
