108
A
C 0.221838 0.847538 4.863158
C 1.474545 1.579309 4.779800
C -0.892737 1.632845 1.646270
C 1.611394 0.223180 1.613357
C 0.221838 0.847538 11.168837
C 1.474545 1.579309 11.085479
C -0.892737 1.632845 7.951949
C 1.611394 0.223180 7.919036
C 0.221838 0.847538 17.474517
C 1.474545 1.579309 17.391158
C -0.892737 1.632845 14.257628
C 1.611394 0.223180 14.224715
C -1.029586 2.988974 4.863158
C 0.223121 3.720745 4.779800
C -2.144161 3.774281 1.646270
C 0.359970 2.364617 1.613357
C -1.029586 2.988974 11.168837
C 0.223121 3.720745 11.085479
C -2.144161 3.774281 7.951949
C 0.359970 2.364617 7.919036
C -1.029586 2.988974 17.474517
C 0.223121 3.720745 17.391158
C -2.144161 3.774281 14.257628
C 0.359970 2.364617 14.224715
C -2.281010 5.130410 4.863158
C -1.028303 5.862181 4.779800
C -3.395586 5.915717 1.646270
C -0.891454 4.506053 1.613357
C -2.281010 5.130410 11.168837
C -1.028303 5.862181 11.085479
C -3.395586 5.915717 7.951949
C -0.891454 4.506053 7.919036
C -2.281010 5.130410 17.474517
C -1.028303 5.862181 17.391158
C -3.395586 5.915717 14.257628
C -0.891454 4.506053 14.224715
C 2.680782 0.847538 5.008771
C 3.933490 1.579309 4.925413
C 1.566207 1.632845 1.791883
C 4.070339 0.223180 1.758970
C 2.680782 0.847538 11.314451
C 3.933490 1.579309 11.231092
C 1.566207 1.632845 8.097562
C 4.070339 0.223180 8.064649
C 2.680782 0.847538 17.620130
C 3.933490 1.579309 17.536771
C 1.566207 1.632845 14.403241
C 4.070339 0.223180 14.370328
C 1.429358 2.988974 5.008771
C 2.682066 3.720745 4.925413
C 0.314783 3.774281 1.791883
C 2.818914 2.364617 1.758970
C 1.429358 2.988974 11.314451
C 2.682066 3.720745 11.231092
C 0.314783 3.774281 8.097562
C 2.818914 2.364617 8.064649
C 1.429358 2.988974 17.620130
C 2.682066 3.720745 17.536771
C 0.314783 3.774281 14.403241
C 2.818914 2.364617 14.370328
C 0.177934 5.130410 5.008771
C 1.430641 5.862181 4.925413
C -0.936641 5.915717 1.791883
C 1.567490 4.506053 1.758970
C 0.177934 5.130410 11.314451
C 1.430641 5.862181 11.231092
C -0.936641 5.915717 8.097562
C 1.567490 4.506053 8.064649
C 0.177934 5.130410 17.620130
C 1.430641 5.862181 17.536771
C -0.936641 5.915717 14.403241
C 1.567490 4.506053 14.370328
C 5.139726 0.847538 5.154385
C 6.392434 1.579309 5.071026
C 4.025151 1.632845 1.937496
C 6.529283 0.223180 1.904583
C 5.139726 0.847538 11.460064
C 6.392434 1.579309 11.376705
C 4.025151 1.632845 8.243175
C 6.529283 0.223180 8.210262
C 5.139726 0.847538 17.765743
C 6.392434 1.579309 17.682384
C 4.025151 1.632845 14.548854
C 6.529283 0.223180 14.515941
C 3.888302 2.988974 5.154385
C 5.141010 3.720745 5.071026
C 2.773727 3.774281 1.937496
C 5.277859 2.364617 1.904583
C 3.888302 2.988974 11.460064
C 5.141010 3.720745 11.376705
C 2.773727 3.774281 8.243175
C 5.277859 2.364617 8.210262
C 3.888302 2.988974 17.765743
C 5.141010 3.720745 17.682384
C 2.773727 3.774281 14.548854
C 5.277859 2.364617 14.515941
C 2.636878 5.130410 5.154385
C 3.889586 5.862181 5.071026
C 1.522303 5.915717 1.937496
C 4.026435 4.506053 1.904583
C 2.636878 5.130410 11.460064
C 3.889586 5.862181 11.376705
C 1.522303 5.915717 8.243175
C 4.026435 4.506053 8.210262
C 2.636878 5.130410 17.765743
C 3.889586 5.862181 17.682384
C 1.522303 5.915717 14.548854
C 4.026435 4.506053 14.515941
