108
A
C 1.721479 0.661068 1.528151
C 1.767418 1.983065 2.973362
C 0.427358 1.749953 3.778908
C 0.381419 0.427956 0.722606
C 1.721479 0.661068 6.029665
C 1.767418 1.983065 7.474876
C 0.427358 1.749953 8.280422
C 0.381419 0.427956 5.224119
C 1.721479 0.661068 10.531179
C 1.767418 1.983065 11.976390
C 0.427358 1.749953 12.781936
C 0.381419 0.427956 9.725633
C 1.363329 3.072089 1.528151
C 1.409268 4.394086 2.973362
C 0.069208 4.160974 3.778908
C 0.023269 2.838977 0.722606
C 1.363329 3.072089 6.029665
C 1.409268 4.394086 7.474876
C 0.069208 4.160974 8.280422
C 0.023269 2.838977 5.224119
C 1.363329 3.072089 10.531179
C 1.409268 4.394086 11.976390
C 0.069208 4.160974 12.781936
C 0.023269 2.838977 9.725633
C 1.005179 5.483110 1.528151
C 1.051118 6.805107 2.973362
C -0.288942 6.571995 3.778908
C -0.334881 5.249998 0.722606
C 1.005179 5.483110 6.029665
C 1.051118 6.805107 7.474876
C -0.288942 6.571995 8.280422
C -0.334881 5.249998 5.224119
C 1.005179 5.483110 10.531179
C 1.051118 6.805107 11.976390
C -0.288942 6.571995 12.781936
C -0.334881 5.249998 9.725633
C 4.228466 0.661068 1.528151
C 4.274405 1.983065 2.973362
C 2.934345 1.749953 3.778908
C 2.888406 0.427956 0.722606
C 4.228466 0.661068 6.029665
C 4.274405 1.983065 7.474876
C 2.934345 1.749953 8.280422
C 2.888406 0.427956 5.224119
C 4.228466 0.661068 10.531179
C 4.274405 1.983065 11.976390
C 2.934345 1.749953 12.781936
C 2.888406 0.427956 9.725633
C 3.870316 3.072089 1.528151
C 3.916255 4.394086 2.973362
C 2.576195 4.160974 3.778908
C 2.530256 2.838977 0.722606
C 3.870316 3.072089 6.029665
C 3.916255 4.394086 7.474876
C 2.576195 4.160974 8.280422
C 2.530256 2.838977 5.224119
C 3.870316 3.072089 10.531179
C 3.916255 4.394086 11.976390
C 2.576195 4.160974 12.781936
C 2.530256 2.838977 9.725633
C 3.512166 5.483110 1.528151
C 3.558105 6.805107 2.973362
C 2.218045 6.571995 3.778908
C 2.172106 5.249998 0.722606
C 3.512166 5.483110 6.029665
C 3.558105 6.805107 7.474876
C 2.218045 6.571995 8.280422
C 2.172106 5.249998 5.224119
C 3.512166 5.483110 10.531179
C 3.558105 6.805107 11.976390
C 2.218045 6.571995 12.781936
C 2.172106 5.249998 9.725633
C 6.735453 0.661068 1.528151
C 6.781392 1.983065 2.973362
C 5.441332 1.749953 3.778908
C 5.395393 0.427956 0.722606
C 6.735453 0.661068 6.029665
C 6.781392 1.983065 7.474876
C 5.441332 1.749953 8.280422
C 5.395393 0.427956 5.224119
C 6.735453 0.661068 10.531179
C 6.781392 1.983065 11.976390
C 5.441332 1.749953 12.781936
C 5.395393 0.427956 9.725633
C 6.377303 3.072089 1.528151
C 6.423242 4.394086 2.973362
C 5.083182 4.160974 3.778908
C 5.037243 2.838977 0.722606
C 6.377303 3.072089 6.029665
C 6.423242 4.394086 7.474876
C 5.083182 4.160974 8.280422
C 5.037243 2.838977 5.224119
C 6.377303 3.072089 10.531179
C 6.423242 4.394086 11.976390
C 5.083182 4.160974 12.781936
C 5.037243 2.838977 9.725633
C 6.019153 5.483110 1.528151
C 6.065092 6.805107 2.973362
C 4.725032 6.571995 3.778908
C 4.679093 5.249998 0.722606
C 6.019153 5.483110 6.029665
C 6.065092 6.805107 7.474876
C 4.725032 6.571995 8.280422
C 4.679093 5.249998 5.224119
C 6.019153 5.483110 10.531179
C 6.065092 6.805107 11.976390
C 4.725032 6.571995 12.781936
C 4.679093 5.249998 9.725633
