108
A
C 1.438730 0.696469 1.688535
C 1.483709 2.089083 4.198964
C 0.156657 1.549857 4.632284
C 0.111677 0.157243 1.255215
C 1.438730 0.696469 7.576033
C 1.483709 2.089083 10.086462
C 0.156657 1.549857 10.519782
C 0.111677 0.157243 7.142713
C 1.438730 0.696469 13.463531
C 1.483709 2.089083 15.973961
C 0.156657 1.549857 16.407281
C 0.111677 0.157243 13.030211
C 0.549530 2.942795 1.688535
C 0.594509 4.335409 4.198964
C -0.732543 3.796183 4.632284
C -0.777523 2.403569 1.255215
C 0.549530 2.942795 7.576033
C 0.594509 4.335409 10.086462
C -0.732543 3.796183 10.519782
C -0.777523 2.403569 7.142713
C 0.549530 2.942795 13.463531
C 0.594509 4.335409 15.973961
C -0.732543 3.796183 16.407281
C -0.777523 2.403569 13.030211
C -0.339670 5.189121 1.688535
C -0.294691 6.581735 4.198964
C -1.621743 6.042509 4.632284
C -1.666723 4.649895 1.255215
C -0.339670 5.189121 7.576033
C -0.294691 6.581735 10.086462
C -1.621743 6.042509 10.519782
C -1.666723 4.649895 7.142713
C -0.339670 5.189121 13.463531
C -0.294691 6.581735 15.973961
C -1.621743 6.042509 16.407281
C -1.666723 4.649895 13.030211
C 3.923316 0.696469 1.688535
C 3.968296 2.089083 4.198964
C 2.641243 1.549857 4.632284
C 2.596263 0.157243 1.255215
C 3.923316 0.696469 7.576033
C 3.968296 2.089083 10.086462
C 2.641243 1.549857 10.519782
C 2.596263 0.157243 7.142713
C 3.923316 0.696469 13.463531
C 3.968296 2.089083 15.973961
C 2.641243 1.549857 16.407281
C 2.596263 0.157243 13.030211
C 3.034116 2.942795 1.688535
C 3.079096 4.335409 4.198964
C 1.752043 3.796183 4.632284
C 1.707063 2.403569 1.255215
C 3.034116 2.942795 7.576033
C 3.079096 4.335409 10.086462
C 1.752043 3.796183 10.519782
C 1.707063 2.403569 7.142713
C 3.034116 2.942795 13.463531
C 3.079096 4.335409 15.973961
C 1.752043 3.796183 16.407281
C 1.707063 2.403569 13.030211
C 2.144916 5.189121 1.688535
C 2.189896 6.581735 4.198964
C 0.862843 6.042509 4.632284
C 0.817863 4.649895 1.255215
C 2.144916 5.189121 7.576033
C 2.189896 6.581735 10.086462
C 0.862843 6.042509 10.519782
C 0.817863 4.649895 7.142713
C 2.144916 5.189121 13.463531
C 2.189896 6.581735 15.973961
C 0.862843 6.042509 16.407281
C 0.817863 4.649895 13.030211
C 6.407902 0.696469 1.688535
C 6.452882 2.089083 4.198964
C 5.125830 1.549857 4.632284
C 5.080850 0.157243 1.255215
C 6.407902 0.696469 7.576033
C 6.452882 2.089083 10.086462
C 5.125830 1.549857 10.519782
C 5.080850 0.157243 7.142713
C 6.407902 0.696469 13.463531
C 6.452882 2.089083 15.973961
C 5.125830 1.549857 16.407281
C 5.080850 0.157243 13.030211
C 5.518702 2.942795 1.688535
C 5.563682 4.335409 4.198964
C 4.236630 3.796183 4.632284
C 4.191650 2.403569 1.255215
C 5.518702 2.942795 7.576033
C 5.563682 4.335409 10.086462
C 4.236630 3.796183 10.519782
C 4.191650 2.403569 7.142713
C 5.518702 2.942795 13.463531
C 5.563682 4.335409 15.973961
C 4.236630 3.796183 16.407281
C 4.191650 2.403569 13.030211
C 4.629502 5.189121 1.688535
C 4.674482 6.581735 4.198964
C 3.347430 6.042509 4.632284
C 3.302450 4.649895 1.255215
C 4.629502 5.189121 7.576033
C 4.674482 6.581735 10.086462
C 3.347430 6.042509 10.519782
C 3.302450 4.649895 7.142713
C 4.629502 5.189121 13.463531
C 4.674482 6.581735 15.973961
C 3.347430 6.042509 16.407281
C 3.302450 4.649895 13.030211
