108
A
C 0.208939 0.840988 4.824162
C 1.464248 1.575554 4.735816
C -0.887794 1.637130 1.640673
C 1.621403 0.229906 1.600321
C 0.208939 0.840988 11.057193
C 1.464248 1.575554 10.968847
C -0.887794 1.637130 7.873704
C 1.621403 0.229906 7.833352
C 0.208939 0.840988 17.290224
C 1.464248 1.575554 17.201878
C -0.887794 1.637130 14.106735
C 1.621403 0.229906 14.066383
C -1.044948 2.982778 4.824162
C 0.210360 3.717343 4.735816
C -2.141681 3.778919 1.640673
C 0.367515 2.371695 1.600321
C -1.044948 2.982778 11.057193
C 0.210360 3.717343 10.968847
C -2.141681 3.778919 7.873704
C 0.367515 2.371695 7.833352
C -1.044948 2.982778 17.290224
C 0.210360 3.717343 17.201878
C -2.141681 3.778919 14.106735
C 0.367515 2.371695 14.066383
C -2.298836 5.124567 4.824162
C -1.043528 5.859132 4.735816
C -3.395569 5.920708 1.640673
C -0.886373 4.513484 1.600321
C -2.298836 5.124567 11.057193
C -1.043528 5.859132 10.968847
C -3.395569 5.920708 7.873704
C -0.886373 4.513484 7.833352
C -2.298836 5.124567 17.290224
C -1.043528 5.859132 17.201878
C -3.395569 5.920708 14.106735
C -0.886373 4.513484 14.066383
C 2.666225 0.840988 4.991617
C 3.921534 1.575554 4.903271
C 1.569492 1.637130 1.808128
C 4.078689 0.229906 1.767777
C 2.666225 0.840988 11.224648
C 3.921534 1.575554 11.136302
C 1.569492 1.637130 8.041159
C 4.078689 0.229906 8.000808
C 2.666225 0.840988 17.457679
C 3.921534 1.575554 17.369333
C 1.569492 1.637130 14.274190
C 4.078689 0.229906 14.233839
C 1.412338 2.982778 4.991617
C 2.667646 3.717343 4.903271
C 0.315605 3.778919 1.808128
C 2.824801 2.371695 1.767777
C 1.412338 2.982778 11.224648
C 2.667646 3.717343 11.136302
C 0.315605 3.778919 8.041159
C 2.824801 2.371695 8.000808
C 1.412338 2.982778 17.457679
C 2.667646 3.717343 17.369333
C 0.315605 3.778919 14.274190
C 2.824801 2.371695 14.233839
C 0.158450 5.124567 4.991617
C 1.413758 5.859132 4.903271
C -0.938283 5.920708 1.808128
C 1.570913 4.513484 1.767777
C 0.158450 5.124567 11.224648
C 1.413758 5.859132 11.136302
C -0.938283 5.920708 8.041159
C 1.570913 4.513484 8.000808
C 0.158450 5.124567 17.457679
C 1.413758 5.859132 17.369333
C -0.938283 5.920708 14.274190
C 1.570913 4.513484 14.233839
C 5.123511 0.840988 5.159072
C 6.378820 1.575554 5.070726
C 4.026778 1.637130 1.975584
C 6.535974 0.229906 1.935232
C 5.123511 0.840988 11.392103
C 6.378820 1.575554 11.303757
C 4.026778 1.637130 8.208615
C 6.535974 0.229906 8.168263
C 5.123511 0.840988 17.625134
C 6.378820 1.575554 17.536788
C 4.026778 1.637130 14.441646
C 6.535974 0.229906 14.401294
C 3.869624 2.982778 5.159072
C 5.124932 3.717343 5.070726
C 2.772891 3.778919 1.975584
C 5.282087 2.371695 1.935232
C 3.869624 2.982778 11.392103
C 5.124932 3.717343 11.303757
C 2.772891 3.778919 8.208615
C 5.282087 2.371695 8.168263
C 3.869624 2.982778 17.625134
C 5.124932 3.717343 17.536788
C 2.772891 3.778919 14.441646
C 5.282087 2.371695 14.401294
C 2.615736 5.124567 5.159072
C 3.871044 5.859132 5.070726
C 1.519003 5.920708 1.975584
C 4.028199 4.513484 1.935232
C 2.615736 5.124567 11.392103
C 3.871044 5.859132 11.303757
C 1.519003 5.920708 8.208615
C 4.028199 4.513484 8.168263
C 2.615736 5.124567 17.625134
C 3.871044 5.859132 17.536788
C 1.519003 5.920708 14.441646
C 4.028199 4.513484 14.401294
