108
A
C 1.665318 0.669455 1.573802
C 1.717884 2.008185 3.217801
C 0.367680 1.707095 3.969604
C 0.315115 0.368365 0.822000
C 1.665318 0.669455 6.365406
C 1.717884 2.008185 8.009405
C 0.367680 1.707095 8.761208
C 0.315115 0.368365 5.613603
C 1.665318 0.669455 11.157009
C 1.717884 2.008185 12.801009
C 0.367680 1.707095 13.552811
C 0.315115 0.368365 10.405207
C 1.196018 3.046005 1.573802
C 1.248584 4.384735 3.217801
C -0.101620 4.083645 3.969604
C -0.154185 2.744915 0.822000
C 1.196018 3.046005 6.365406
C 1.248584 4.384735 8.009405
C -0.101620 4.083645 8.761208
C -0.154185 2.744915 5.613603
C 1.196018 3.046005 11.157009
C 1.248584 4.384735 12.801009
C -0.101620 4.083645 13.552811
C -0.154185 2.744915 10.405207
C 0.726718 5.422555 1.573802
C 0.779284 6.761285 3.217801
C -0.570920 6.460195 3.969604
C -0.623485 5.121465 0.822000
C 0.726718 5.422555 6.365406
C 0.779284 6.761285 8.009405
C -0.570920 6.460195 8.761208
C -0.623485 5.121465 5.613603
C 0.726718 5.422555 11.157009
C 0.779284 6.761285 12.801009
C -0.570920 6.460195 13.552811
C -0.623485 5.121465 10.405207
C 4.167617 0.669455 1.573802
C 4.220182 2.008185 3.217801
C 2.869979 1.707095 3.969604
C 2.817413 0.368365 0.822000
C 4.167617 0.669455 6.365406
C 4.220182 2.008185 8.009405
C 2.869979 1.707095 8.761208
C 2.817413 0.368365 5.613603
C 4.167617 0.669455 11.157009
C 4.220182 2.008185 12.801009
C 2.869979 1.707095 13.552811
C 2.817413 0.368365 10.405207
C 3.698317 3.046005 1.573802
C 3.750882 4.384735 3.217801
C 2.400679 4.083645 3.969604
C 2.348113 2.744915 0.822000
C 3.698317 3.046005 6.365406
C 3.750882 4.384735 8.009405
C 2.400679 4.083645 8.761208
C 2.348113 2.744915 5.613603
C 3.698317 3.046005 11.157009
C 3.750882 4.384735 12.801009
C 2.400679 4.083645 13.552811
C 2.348113 2.744915 10.405207
C 3.229017 5.422555 1.573802
C 3.281582 6.761285 3.217801
C 1.931379 6.460195 3.969604
C 1.878813 5.121465 0.822000
C 3.229017 5.422555 6.365406
C 3.281582 6.761285 8.009405
C 1.931379 6.460195 8.761208
C 1.878813 5.121465 5.613603
C 3.229017 5.422555 11.157009
C 3.281582 6.761285 12.801009
C 1.931379 6.460195 13.552811
C 1.878813 5.121465 10.405207
C 6.669915 0.669455 1.573802
C 6.722481 2.008185 3.217801
C 5.372277 1.707095 3.969604
C 5.319712 0.368365 0.822000
C 6.669915 0.669455 6.365406
C 6.722481 2.008185 8.009405
C 5.372277 1.707095 8.761208
C 5.319712 0.368365 5.613603
C 6.669915 0.669455 11.157009
C 6.722481 2.008185 12.801009
C 5.372277 1.707095 13.552811
C 5.319712 0.368365 10.405207
C 6.200615 3.046005 1.573802
C 6.253181 4.384735 3.217801
C 4.902977 4.083645 3.969604
C 4.850412 2.744915 0.822000
C 6.200615 3.046005 6.365406
C 6.253181 4.384735 8.009405
C 4.902977 4.083645 8.761208
C 4.850412 2.744915 5.613603
C 6.200615 3.046005 11.157009
C 6.253181 4.384735 12.801009
C 4.902977 4.083645 13.552811
C 4.850412 2.744915 10.405207
C 5.731315 5.422555 1.573802
C 5.783881 6.761285 3.217801
C 4.433677 6.460195 3.969604
C 4.381112 5.121465 0.822000
C 5.731315 5.422555 6.365406
C 5.783881 6.761285 8.009405
C 4.433677 6.460195 8.761208
C 4.381112 5.121465 5.613603
C 5.731315 5.422555 11.157009
C 5.783881 6.761285 12.801009
C 4.433677 6.460195 13.552811
C 4.381112 5.121465 10.405207
