108
A
C 1.733742 0.659134 1.517138
C 1.777718 1.977272 2.919911
C 0.440836 1.759547 3.735663
C 0.396861 0.441409 0.701387
C 1.733742 0.659134 5.954188
C 1.777718 1.977272 7.356961
C 0.440836 1.759547 8.172712
C 0.396861 0.441409 5.138436
C 1.733742 0.659134 10.391237
C 1.777718 1.977272 11.794010
C 0.440836 1.759547 12.609762
C 0.396861 0.441409 9.575485
C 1.400292 3.077815 1.517138
C 1.444268 4.395953 2.919911
C 0.107386 4.178228 3.735663
C 0.063411 2.860091 0.701387
C 1.400292 3.077815 5.954188
C 1.444268 4.395953 7.356961
C 0.107386 4.178228 8.172712
C 0.063411 2.860091 5.138436
C 1.400292 3.077815 10.391237
C 1.444268 4.395953 11.794010
C 0.107386 4.178228 12.609762
C 0.063411 2.860091 9.575485
C 1.066842 5.496497 1.517138
C 1.110818 6.814634 2.919911
C -0.226064 6.596909 3.735663
C -0.270039 5.278772 0.701387
C 1.066842 5.496497 5.954188
C 1.110818 6.814634 7.356961
C -0.226064 6.596909 8.172712
C -0.270039 5.278772 5.138436
C 1.066842 5.496497 10.391237
C 1.110818 6.814634 11.794010
C -0.226064 6.596909 12.609762
C -0.270039 5.278772 9.575485
C 4.241771 0.659134 1.517138
C 4.285747 1.977272 2.919911
C 2.948865 1.759547 3.735663
C 2.904889 0.441409 0.701387
C 4.241771 0.659134 5.954188
C 4.285747 1.977272 7.356961
C 2.948865 1.759547 8.172712
C 2.904889 0.441409 5.138436
C 4.241771 0.659134 10.391237
C 4.285747 1.977272 11.794010
C 2.948865 1.759547 12.609762
C 2.904889 0.441409 9.575485
C 3.908321 3.077815 1.517138
C 3.952297 4.395953 2.919911
C 2.615415 4.178228 3.735663
C 2.571439 2.860091 0.701387
C 3.908321 3.077815 5.954188
C 3.952297 4.395953 7.356961
C 2.615415 4.178228 8.172712
C 2.571439 2.860091 5.138436
C 3.908321 3.077815 10.391237
C 3.952297 4.395953 11.794010
C 2.615415 4.178228 12.609762
C 2.571439 2.860091 9.575485
C 3.574871 5.496497 1.517138
C 3.618847 6.814634 2.919911
C 2.281965 6.596909 3.735663
C 2.237989 5.278772 0.701387
C 3.574871 5.496497 5.954188
C 3.618847 6.814634 7.356961
C 2.281965 6.596909 8.172712
C 2.237989 5.278772 5.138436
C 3.574871 5.496497 10.391237
C 3.618847 6.814634 11.794010
C 2.281965 6.596909 12.609762
C 2.237989 5.278772 9.575485
C 6.749800 0.659134 1.517138
C 6.793776 1.977272 2.919911
C 5.456894 1.759547 3.735663
C 5.412918 0.441409 0.701387
C 6.749800 0.659134 5.954188
C 6.793776 1.977272 7.356961
C 5.456894 1.759547 8.172712
C 5.412918 0.441409 5.138436
C 6.749800 0.659134 10.391237
C 6.793776 1.977272 11.794010
C 5.456894 1.759547 12.609762
C 5.412918 0.441409 9.575485
C 6.416350 3.077815 1.517138
C 6.460326 4.395953 2.919911
C 5.123444 4.178228 3.735663
C 5.079468 2.860091 0.701387
C 6.416350 3.077815 5.954188
C 6.460326 4.395953 7.356961
C 5.123444 4.178228 8.172712
C 5.079468 2.860091 5.138436
C 6.416350 3.077815 10.391237
C 6.460326 4.395953 11.794010
C 5.123444 4.178228 12.609762
C 5.079468 2.860091 9.575485
C 6.082900 5.496497 1.517138
C 6.126876 6.814634 2.919911
C 4.789994 6.596909 3.735663
C 4.746018 5.278772 0.701387
C 6.082900 5.496497 5.954188
C 6.126876 6.814634 7.356961
C 4.789994 6.596909 8.172712
C 4.746018 5.278772 5.138436
C 6.082900 5.496497 10.391237
C 6.126876 6.814634 11.794010
C 4.789994 6.596909 12.609762
C 4.746018 5.278772 9.575485
