108
A
C 0.090296 0.779757 4.434419
C 1.369182 1.540438 4.330009
C -0.842697 1.677187 1.582677
C 1.713071 0.292785 1.505486
C 0.090296 0.779757 9.989401
C 1.369182 1.540438 9.884990
C -0.842697 1.677187 7.137659
C 1.713071 0.292785 7.060467
C 0.090296 0.779757 15.544383
C 1.369182 1.540438 15.439972
C -0.842697 1.677187 12.692640
C 1.713071 0.292785 12.615449
C -1.186586 2.924841 4.434419
C 0.092300 3.685522 4.330009
C -2.119578 3.822271 1.582677
C 0.436189 2.437868 1.505486
C -1.186586 2.924841 9.989401
C 0.092300 3.685522 9.884990
C -2.119578 3.822271 7.137659
C 0.436189 2.437868 7.060467
C -1.186586 2.924841 15.544383
C 0.092300 3.685522 15.439972
C -2.119578 3.822271 12.692640
C 0.436189 2.437868 12.615449
C -2.463467 5.069925 4.434419
C -1.184581 5.830606 4.330009
C -3.396460 5.967355 1.582677
C -0.840692 4.582952 1.505486
C -2.463467 5.069925 9.989401
C -1.184581 5.830606 9.884990
C -3.396460 5.967355 7.137659
C -0.840692 4.582952 7.060467
C -2.463467 5.069925 15.544383
C -1.184581 5.830606 15.439972
C -3.396460 5.967355 12.692640
C -0.840692 4.582952 12.615449
C 2.532104 0.779757 4.805733
C 3.810990 1.540438 4.701322
C 1.599111 1.677187 1.953990
C 4.154879 0.292785 1.876799
C 2.532104 0.779757 10.360715
C 3.810990 1.540438 10.256304
C 1.599111 1.677187 7.508972
C 4.154879 0.292785 7.431781
C 2.532104 0.779757 15.915696
C 3.810990 1.540438 15.811286
C 1.599111 1.677187 13.063954
C 4.154879 0.292785 12.986763
C 1.255222 2.924841 4.805733
C 2.534108 3.685522 4.701322
C 0.322230 3.822271 1.953990
C 2.877997 2.437868 1.876799
C 1.255222 2.924841 10.360715
C 2.534108 3.685522 10.256304
C 0.322230 3.822271 7.508972
C 2.877997 2.437868 7.431781
C 1.255222 2.924841 15.915696
C 2.534108 3.685522 15.811286
C 0.322230 3.822271 13.063954
C 2.877997 2.437868 12.986763
C -0.021659 5.069925 4.805733
C 1.257227 5.830606 4.701322
C -0.954652 5.967355 1.953990
C 1.601116 4.582952 1.876799
C -0.021659 5.069925 10.360715
C 1.257227 5.830606 10.256304
C -0.954652 5.967355 7.508972
C 1.601116 4.582952 7.431781
C -0.021659 5.069925 15.915696
C 1.257227 5.830606 15.811286
C -0.954652 5.967355 13.063954
C 1.601116 4.582952 12.986763
C 4.973912 0.779757 5.177046
C 6.252798 1.540438 5.072636
C 4.040919 1.677187 2.325304
C 6.596687 0.292785 2.248113
C 4.973912 0.779757 10.732028
C 6.252798 1.540438 10.627618
C 4.040919 1.677187 7.880286
C 6.596687 0.292785 7.803095
C 4.973912 0.779757 16.287010
C 6.252798 1.540438 16.182599
C 4.040919 1.677187 13.435268
C 6.596687 0.292785 13.358076
C 3.697030 2.924841 5.177046
C 4.975916 3.685522 5.072636
C 2.764038 3.822271 2.325304
C 5.319805 2.437868 2.248113
C 3.697030 2.924841 10.732028
C 4.975916 3.685522 10.627618
C 2.764038 3.822271 7.880286
C 5.319805 2.437868 7.803095
C 3.697030 2.924841 16.287010
C 4.975916 3.685522 16.182599
C 2.764038 3.822271 13.435268
C 5.319805 2.437868 13.358076
C 2.420149 5.069925 5.177046
C 3.699035 5.830606 5.072636
C 1.487156 5.967355 2.325304
C 4.042924 4.582952 2.248113
C 2.420149 5.069925 10.732028
C 3.699035 5.830606 10.627618
C 1.487156 5.967355 7.880286
C 4.042924 4.582952 7.803095
C 2.420149 5.069925 16.287010
C 3.699035 5.830606 16.182599
C 1.487156 5.967355 13.435268
C 4.042924 4.582952 13.358076
