108
A
C -0.057623 0.700749 3.864904
C 1.249729 1.495120 3.820765
C -0.787489 1.728859 1.492812
C 1.826308 0.373911 1.454762
C -0.057623 0.700749 8.548108
C 1.249729 1.495120 8.503969
C -0.787489 1.728859 6.176016
C 1.826308 0.373911 6.137966
C -0.057623 0.700749 13.231312
C 1.249729 1.495120 13.187173
C -0.787489 1.728859 10.859221
C 1.826308 0.373911 10.821170
C -1.364068 2.850069 3.864904
C -0.056716 3.644440 3.820765
C -2.093934 3.878179 1.492812
C 0.519863 2.523230 1.454762
C -1.364068 2.850069 8.548108
C -0.056716 3.644440 8.503969
C -2.093934 3.878179 6.176016
C 0.519863 2.523230 6.137966
C -1.364068 2.850069 13.231312
C -0.056716 3.644440 13.187173
C -2.093934 3.878179 10.859221
C 0.519863 2.523230 10.821170
C -2.670513 4.999388 3.864904
C -1.363161 5.793760 3.820765
C -3.400380 6.027498 1.492812
C -0.786582 4.672550 1.454762
C -2.670513 4.999388 8.548108
C -1.363161 5.793760 8.503969
C -3.400380 6.027498 6.176016
C -0.786582 4.672550 6.137966
C -2.670513 4.999388 13.231312
C -1.363161 5.793760 13.187173
C -3.400380 6.027498 10.859221
C -0.786582 4.672550 10.821170
C 2.364285 0.700749 4.498321
C 3.671637 1.495120 4.454182
C 1.634418 1.728859 2.126230
C 4.248216 0.373911 2.088179
C 2.364285 0.700749 9.181525
C 3.671637 1.495120 9.137386
C 1.634418 1.728859 6.809434
C 4.248216 0.373911 6.771383
C 2.364285 0.700749 13.864729
C 3.671637 1.495120 13.820591
C 1.634418 1.728859 11.492638
C 4.248216 0.373911 11.454587
C 1.057840 2.850069 4.498321
C 2.365192 3.644440 4.454182
C 0.327973 3.878179 2.126230
C 2.941771 2.523230 2.088179
C 1.057840 2.850069 9.181525
C 2.365192 3.644440 9.137386
C 0.327973 3.878179 6.809434
C 2.941771 2.523230 6.771383
C 1.057840 2.850069 13.864729
C 2.365192 3.644440 13.820591
C 0.327973 3.878179 11.492638
C 2.941771 2.523230 11.454587
C -0.248605 4.999388 4.498321
C 1.058747 5.793760 4.454182
C -0.978472 6.027498 2.126230
C 1.635326 4.672550 2.088179
C -0.248605 4.999388 9.181525
C 1.058747 5.793760 9.137386
C -0.978472 6.027498 6.809434
C 1.635326 4.672550 6.771383
C -0.248605 4.999388 13.864729
C 1.058747 5.793760 13.820591
C -0.978472 6.027498 11.492638
C 1.635326 4.672550 11.454587
C 4.786192 0.700749 5.131739
C 6.093545 1.495120 5.087600
C 4.056326 1.728859 2.759647
C 6.670123 0.373911 2.721596
C 4.786192 0.700749 9.814943
C 6.093545 1.495120 9.770804
C 4.056326 1.728859 7.442851
C 6.670123 0.373911 7.404801
C 4.786192 0.700749 14.498147
C 6.093545 1.495120 14.454008
C 4.056326 1.728859 12.126055
C 6.670123 0.373911 12.088005
C 3.479747 2.850069 5.131739
C 4.787100 3.644440 5.087600
C 2.749881 3.878179 2.759647
C 5.363678 2.523230 2.721596
C 3.479747 2.850069 9.814943
C 4.787100 3.644440 9.770804
C 2.749881 3.878179 7.442851
C 5.363678 2.523230 7.404801
C 3.479747 2.850069 14.498147
C 4.787100 3.644440 14.454008
C 2.749881 3.878179 12.126055
C 5.363678 2.523230 12.088005
C 2.173302 4.999388 5.131739
C 3.480655 5.793760 5.087600
C 1.443436 6.027498 2.759647
C 4.057233 4.672550 2.721596
C 2.173302 4.999388 9.814943
C 3.480655 5.793760 9.770804
C 1.443436 6.027498 7.442851
C 4.057233 4.672550 7.404801
C 2.173302 4.999388 14.498147
C 3.480655 5.793760 14.454008
C 1.443436 6.027498 12.126055
C 4.057233 4.672550 12.088005
