108
A
C 0.282508 0.878071 5.038074
C 1.522887 1.596817 4.986351
C -0.916095 1.612866 1.670806
C 1.564212 0.191824 1.681543
C 0.282508 0.878071 11.682778
C 1.522887 1.596817 11.631055
C -0.916095 1.612866 8.315510
C 1.564212 0.191824 8.326247
C 0.282508 0.878071 18.327482
C 1.522887 1.596817 18.275759
C -0.916095 1.612866 14.960214
C 1.564212 0.191824 14.970951
C -0.957419 3.017860 5.038074
C 0.282960 3.736606 4.986351
C -2.156022 3.752655 1.670806
C 0.324285 2.331612 1.681543
C -0.957419 3.017860 11.682778
C 0.282960 3.736606 11.631055
C -2.156022 3.752655 8.315510
C 0.324285 2.331612 8.326247
C -0.957419 3.017860 18.327482
C 0.282960 3.736606 18.275759
C -2.156022 3.752655 14.960214
C 0.324285 2.331612 14.970951
C -2.197347 5.157648 5.038074
C -0.956967 5.876395 4.986351
C -3.395950 5.892443 1.670806
C -0.915643 4.471401 1.681543
C -2.197347 5.157648 11.682778
C -0.956967 5.876395 11.631055
C -3.395950 5.892443 8.315510
C -0.915643 4.471401 8.326247
C -2.197347 5.157648 18.327482
C -0.956967 5.876395 18.275759
C -3.395950 5.892443 14.960214
C -0.915643 4.471401 14.970951
C 2.749191 0.878071 5.081758
C 3.989571 1.596817 5.030035
C 1.550588 1.612866 1.714490
C 4.030895 0.191824 1.725227
C 2.749191 0.878071 11.726462
C 3.989571 1.596817 11.674739
C 1.550588 1.612866 8.359194
C 4.030895 0.191824 8.369931
C 2.749191 0.878071 18.371166
C 3.989571 1.596817 18.319443
C 1.550588 1.612866 15.003898
C 4.030895 0.191824 15.014635
C 1.509264 3.017860 5.081758
C 2.749643 3.736606 5.030035
C 0.310661 3.752655 1.714490
C 2.790968 2.331612 1.725227
C 1.509264 3.017860 11.726462
C 2.749643 3.736606 11.674739
C 0.310661 3.752655 8.359194
C 2.790968 2.331612 8.369931
C 1.509264 3.017860 18.371166
C 2.749643 3.736606 18.319443
C 0.310661 3.752655 15.003898
C 2.790968 2.331612 15.014635
C 0.269337 5.157648 5.081758
C 1.509716 5.876395 5.030035
C -0.929266 5.892443 1.714490
C 1.551041 4.471401 1.725227
C 0.269337 5.157648 11.726462
C 1.509716 5.876395 11.674739
C -0.929266 5.892443 8.359194
C 1.551041 4.471401 8.369931
C 0.269337 5.157648 18.371166
C 1.509716 5.876395 18.319443
C -0.929266 5.892443 15.003898
C 1.551041 4.471401 15.014635
C 5.215874 0.878071 5.125442
C 6.456254 1.596817 5.073719
C 4.017272 1.612866 1.758174
C 6.497578 0.191824 1.768911
C 5.215874 0.878071 11.770146
C 6.456254 1.596817 11.718423
C 4.017272 1.612866 8.402878
C 6.497578 0.191824 8.413615
C 5.215874 0.878071 18.414850
C 6.456254 1.596817 18.363127
C 4.017272 1.612866 15.047582
C 6.497578 0.191824 15.058319
C 3.975947 3.017860 5.125442
C 5.216327 3.736606 5.073719
C 2.777344 3.752655 1.758174
C 5.257651 2.331612 1.768911
C 3.975947 3.017860 11.770146
C 5.216327 3.736606 11.718423
C 2.777344 3.752655 8.402878
C 5.257651 2.331612 8.413615
C 3.975947 3.017860 18.414850
C 5.216327 3.736606 18.363127
C 2.777344 3.752655 15.047582
C 5.257651 2.331612 15.058319
C 2.736020 5.157648 5.125442
C 3.976400 5.876395 5.073719
C 1.537417 5.892443 1.758174
C 4.017724 4.471401 1.768911
C 2.736020 5.157648 11.770146
C 3.976400 5.876395 11.718423
C 1.537417 5.892443 8.402878
C 4.017724 4.471401 8.413615
C 2.736020 5.157648 18.414850
C 3.976400 5.876395 18.363127
C 1.537417 5.892443 15.047582
C 4.017724 4.471401 15.058319
