108
A
C 1.880373 0.632803 1.352820
C 1.884746 1.898398 2.278424
C 0.615979 1.881631 3.168442
C 0.611606 0.616036 0.462802
C 1.880373 0.632803 4.984065
C 1.884746 1.898398 5.909669
C 0.615979 1.881631 6.799687
C 0.611606 0.616036 4.094046
C 1.880373 0.632803 8.615309
C 1.884746 1.898398 9.540913
C 0.615979 1.881631 10.430931
C 0.611606 0.616036 7.725291
C 1.855673 3.147237 1.352820
C 1.860046 4.412832 2.278424
C 0.591279 4.396066 3.168442
C 0.586906 3.130470 0.462802
C 1.855673 3.147237 4.984065
C 1.860046 4.412832 5.909669
C 0.591279 4.396066 6.799687
C 0.586906 3.130470 4.094046
C 1.855673 3.147237 8.615309
C 1.860046 4.412832 9.540913
C 0.591279 4.396066 10.430931
C 0.586906 3.130470 7.725291
C 1.830973 5.661671 1.352820
C 1.835346 6.927266 2.278424
C 0.566579 6.910500 3.168442
C 0.562206 5.644905 0.462802
C 1.830973 5.661671 4.984065
C 1.835346 6.927266 5.909669
C 0.566579 6.910500 6.799687
C 0.562206 5.644905 4.094046
C 1.830973 5.661671 8.615309
C 1.835346 6.927266 9.540913
C 0.566579 6.910500 10.430931
C 0.562206 5.644905 7.725291
C 4.401425 0.632803 1.352820
C 4.405799 1.898398 2.278424
C 3.137032 1.881631 3.168442
C 3.132659 0.616036 0.462802
C 4.401425 0.632803 4.984065
C 4.405799 1.898398 5.909669
C 3.137032 1.881631 6.799687
C 3.132659 0.616036 4.094046
C 4.401425 0.632803 8.615309
C 4.405799 1.898398 9.540913
C 3.137032 1.881631 10.430931
C 3.132659 0.616036 7.725291
C 4.376725 3.147237 1.352820
C 4.381099 4.412832 2.278424
C 3.112332 4.396066 3.168442
C 3.107959 3.130470 0.462802
C 4.376725 3.147237 4.984065
C 4.381099 4.412832 5.909669
C 3.112332 4.396066 6.799687
C 3.107959 3.130470 4.094046
C 4.376725 3.147237 8.615309
C 4.381099 4.412832 9.540913
C 3.112332 4.396066 10.430931
C 3.107959 3.130470 7.725291
C 4.352025 5.661671 1.352820
C 4.356399 6.927266 2.278424
C 3.087632 6.910500 3.168442
C 3.083259 5.644905 0.462802
C 4.352025 5.661671 4.984065
C 4.356399 6.927266 5.909669
C 3.087632 6.910500 6.799687
C 3.083259 5.644905 4.094046
C 4.352025 5.661671 8.615309
C 4.356399 6.927266 9.540913
C 3.087632 6.910500 10.430931
C 3.083259 5.644905 7.725291
C 6.922478 0.632803 1.352820
C 6.926851 1.898398 2.278424
C 5.658084 1.881631 3.168442
C 5.653711 0.616036 0.462802
C 6.922478 0.632803 4.984065
C 6.926851 1.898398 5.909669
C 5.658084 1.881631 6.799687
C 5.653711 0.616036 4.094046
C 6.922478 0.632803 8.615309
C 6.926851 1.898398 9.540913
C 5.658084 1.881631 10.430931
C 5.653711 0.616036 7.725291
C 6.897778 3.147237 1.352820
C 6.902151 4.412832 2.278424
C 5.633384 4.396066 3.168442
C 5.629011 3.130470 0.462802
C 6.897778 3.147237 4.984065
C 6.902151 4.412832 5.909669
C 5.633384 4.396066 6.799687
C 5.629011 3.130470 4.094046
C 6.897778 3.147237 8.615309
C 6.902151 4.412832 9.540913
C 5.633384 4.396066 10.430931
C 5.629011 3.130470 7.725291
C 6.873078 5.661671 1.352820
C 6.877451 6.927266 2.278424
C 5.608684 6.910500 3.168442
C 5.604311 5.644905 0.462802
C 6.873078 5.661671 4.984065
C 6.877451 6.927266 5.909669
C 5.608684 6.910500 6.799687
C 5.604311 5.644905 4.094046
C 6.873078 5.661671 8.615309
C 6.877451 6.927266 9.540913
C 5.608684 6.910500 10.430931
C 5.604311 5.644905 7.725291
