108
A
C 1.487245 0.691511 1.672376
C 1.538003 2.074237 3.989497
C 0.198238 1.581626 4.503312
C 0.147480 0.198899 1.158561
C 1.487245 0.691511 7.334249
C 1.538003 2.074237 9.651370
C 0.198238 1.581626 10.165185
C 0.147480 0.198899 6.820434
C 1.487245 0.691511 12.996122
C 1.538003 2.074237 15.313243
C 0.198238 1.581626 15.827058
C 0.147480 0.198899 12.482307
C 0.684495 2.964648 1.672376
C 0.735253 4.347374 3.989497
C -0.604512 3.854763 4.503312
C -0.655270 2.472036 1.158561
C 0.684495 2.964648 7.334249
C 0.735253 4.347374 9.651370
C -0.604512 3.854763 10.165185
C -0.655270 2.472036 6.820434
C 0.684495 2.964648 12.996122
C 0.735253 4.347374 15.313243
C -0.604512 3.854763 15.827058
C -0.655270 2.472036 12.482307
C -0.118255 5.237785 1.672376
C -0.067497 6.620511 3.989497
C -1.407262 6.127899 4.503312
C -1.458020 4.745173 1.158561
C -0.118255 5.237785 7.334249
C -0.067497 6.620511 9.651370
C -1.407262 6.127899 10.165185
C -1.458020 4.745173 6.820434
C -0.118255 5.237785 12.996122
C -0.067497 6.620511 15.313243
C -1.407262 6.127899 15.827058
C -1.458020 4.745173 12.482307
C 3.975478 0.691511 1.672376
C 4.026236 2.074237 3.989497
C 2.686471 1.581626 4.503312
C 2.635713 0.198899 1.158561
C 3.975478 0.691511 7.334249
C 4.026236 2.074237 9.651370
C 2.686471 1.581626 10.165185
C 2.635713 0.198899 6.820434
C 3.975478 0.691511 12.996122
C 4.026236 2.074237 15.313243
C 2.686471 1.581626 15.827058
C 2.635713 0.198899 12.482307
C 3.172728 2.964648 1.672376
C 3.223486 4.347374 3.989497
C 1.883721 3.854763 4.503312
C 1.832963 2.472036 1.158561
C 3.172728 2.964648 7.334249
C 3.223486 4.347374 9.651370
C 1.883721 3.854763 10.165185
C 1.832963 2.472036 6.820434
C 3.172728 2.964648 12.996122
C 3.223486 4.347374 15.313243
C 1.883721 3.854763 15.827058
C 1.832963 2.472036 12.482307
C 2.369978 5.237785 1.672376
C 2.420736 6.620511 3.989497
C 1.080971 6.127899 4.503312
C 1.030213 4.745173 1.158561
C 2.369978 5.237785 7.334249
C 2.420736 6.620511 9.651370
C 1.080971 6.127899 10.165185
C 1.030213 4.745173 6.820434
C 2.369978 5.237785 12.996122
C 2.420736 6.620511 15.313243
C 1.080971 6.127899 15.827058
C 1.030213 4.745173 12.482307
C 6.463711 0.691511 1.672376
C 6.514469 2.074237 3.989497
C 5.174704 1.581626 4.503312
C 5.123946 0.198899 1.158561
C 6.463711 0.691511 7.334249
C 6.514469 2.074237 9.651370
C 5.174704 1.581626 10.165185
C 5.123946 0.198899 6.820434
C 6.463711 0.691511 12.996122
C 6.514469 2.074237 15.313243
C 5.174704 1.581626 15.827058
C 5.123946 0.198899 12.482307
C 5.660961 2.964648 1.672376
C 5.711719 4.347374 3.989497
C 4.371954 3.854763 4.503312
C 4.321196 2.472036 1.158561
C 5.660961 2.964648 7.334249
C 5.711719 4.347374 9.651370
C 4.371954 3.854763 10.165185
C 4.321196 2.472036 6.820434
C 5.660961 2.964648 12.996122
C 5.711719 4.347374 15.313243
C 4.371954 3.854763 15.827058
C 4.321196 2.472036 12.482307
C 4.858211 5.237785 1.672376
C 4.908969 6.620511 3.989497
C 3.569204 6.127899 4.503312
C 3.518446 4.745173 1.158561
C 4.858211 5.237785 7.334249
C 4.908969 6.620511 9.651370
C 3.569204 6.127899 10.165185
C 3.518446 4.745173 6.820434
C 4.858211 5.237785 12.996122
C 4.908969 6.620511 15.313243
C 3.569204 6.127899 15.827058
C 3.518446 4.745173 12.482307
