108
A
C 0.299987 0.886786 5.085912
C 1.536786 1.601814 5.045757
C -0.922855 1.607163 1.677338
C 1.550587 0.182873 1.703251
C 0.299987 0.886786 11.827480
C 1.536786 1.601814 11.787325
C -0.922855 1.607163 8.418906
C 1.550587 0.182873 8.444818
C 0.299987 0.886786 18.569048
C 1.536786 1.601814 18.528893
C -0.922855 1.607163 15.160474
C 1.550587 0.182873 15.186386
C -0.936656 3.026104 5.085912
C 0.300144 3.741132 5.045757
C -2.159498 3.746481 1.677338
C 0.313944 2.322191 1.703251
C -0.936656 3.026104 11.827480
C 0.300144 3.741132 11.787325
C -2.159498 3.746481 8.418906
C 0.313944 2.322191 8.444818
C -0.936656 3.026104 18.569048
C 0.300144 3.741132 18.528893
C -2.159498 3.746481 15.160474
C 0.313944 2.322191 15.186386
C -2.173298 5.165422 5.085912
C -0.936499 5.880451 5.045757
C -3.396140 5.885799 1.677338
C -0.922698 4.461509 1.703251
C -2.173298 5.165422 11.827480
C -0.936499 5.880451 11.787325
C -3.396140 5.885799 8.418906
C -0.922698 4.461509 8.444818
C -2.173298 5.165422 18.569048
C -0.936499 5.880451 18.528893
C -3.396140 5.885799 15.160474
C -0.922698 4.461509 15.186386
C 2.768881 0.886786 5.100474
C 4.005681 1.601814 5.060318
C 1.546039 1.607163 1.691900
C 4.019481 0.182873 1.717812
C 2.768881 0.886786 11.842042
C 4.005681 1.601814 11.801886
C 1.546039 1.607163 8.433468
C 4.019481 0.182873 8.459380
C 2.768881 0.886786 18.583609
C 4.005681 1.601814 18.543454
C 1.546039 1.607163 15.175036
C 4.019481 0.182873 15.200948
C 1.532239 3.026104 5.100474
C 2.769038 3.741132 5.060318
C 0.309397 3.746481 1.691900
C 2.782839 2.322191 1.717812
C 1.532239 3.026104 11.842042
C 2.769038 3.741132 11.801886
C 0.309397 3.746481 8.433468
C 2.782839 2.322191 8.459380
C 1.532239 3.026104 18.583609
C 2.769038 3.741132 18.543454
C 0.309397 3.746481 15.175036
C 2.782839 2.322191 15.200948
C 0.295596 5.165422 5.100474
C 1.532396 5.880451 5.060318
C -0.927246 5.885799 1.691900
C 1.546196 4.461509 1.717812
C 0.295596 5.165422 11.842042
C 1.532396 5.880451 11.801886
C -0.927246 5.885799 8.433468
C 1.546196 4.461509 8.459380
C 0.295596 5.165422 18.583609
C 1.532396 5.880451 18.543454
C -0.927246 5.885799 15.175036
C 1.546196 4.461509 15.200948
C 5.237775 0.886786 5.115035
C 6.474575 1.601814 5.074880
C 4.014933 1.607163 1.706461
C 6.488376 0.182873 1.732373
C 5.237775 0.886786 11.856603
C 6.474575 1.601814 11.816448
C 4.014933 1.607163 8.448029
C 6.488376 0.182873 8.473941
C 5.237775 0.886786 18.598171
C 6.474575 1.601814 18.558016
C 4.014933 1.607163 15.189597
C 6.488376 0.182873 15.215509
C 4.001133 3.026104 5.115035
C 5.237933 3.741132 5.074880
C 2.778291 3.746481 1.706461
C 5.251733 2.322191 1.732373
C 4.001133 3.026104 11.856603
C 5.237933 3.741132 11.816448
C 2.778291 3.746481 8.448029
C 5.251733 2.322191 8.473941
C 4.001133 3.026104 18.598171
C 5.237933 3.741132 18.558016
C 2.778291 3.746481 15.189597
C 5.251733 2.322191 15.215509
C 2.764491 5.165422 5.115035
C 4.001290 5.880451 5.074880
C 1.541649 5.885799 1.706461
C 4.015091 4.461509 1.732373
C 2.764491 5.165422 11.856603
C 4.001290 5.880451 11.816448
C 1.541649 5.885799 8.448029
C 4.015091 4.461509 8.473941
C 2.764491 5.165422 18.598171
C 4.001290 5.880451 18.558016
C 1.541649 5.885799 15.189597
C 4.015091 4.461509 15.215509
