108
A
C 1.554875 0.683885 1.642579
C 1.610096 2.051401 3.696972
C 0.259317 1.627553 4.312355
C 0.204097 0.260037 1.027196
C 1.554875 0.683885 6.982130
C 1.610096 2.051401 9.036523
C 0.259317 1.627553 9.651906
C 0.204097 0.260037 6.366747
C 1.554875 0.683885 12.321681
C 1.610096 2.051401 14.376074
C 0.259317 1.627553 14.991457
C 0.204097 0.260037 11.706298
C 0.875625 2.995323 1.642579
C 0.930846 4.362839 3.696972
C -0.419933 3.938991 4.312355
C -0.475153 2.571475 1.027196
C 0.875625 2.995323 6.982130
C 0.930846 4.362839 9.036523
C -0.419933 3.938991 9.651906
C -0.475153 2.571475 6.366747
C 0.875625 2.995323 12.321681
C 0.930846 4.362839 14.376074
C -0.419933 3.938991 14.991457
C -0.475153 2.571475 11.706298
C 0.196375 5.306761 1.642579
C 0.251596 6.674277 3.696972
C -1.099183 6.250429 4.312355
C -1.154403 4.882913 1.027196
C 0.196375 5.306761 6.982130
C 0.251596 6.674277 9.036523
C -1.099183 6.250429 9.651906
C -1.154403 4.882913 6.366747
C 0.196375 5.306761 12.321681
C 0.251596 6.674277 14.376074
C -1.099183 6.250429 14.991457
C -1.154403 4.882913 11.706298
C 4.048318 0.683885 1.642579
C 4.103538 2.051401 3.696972
C 2.752760 1.627553 4.312355
C 2.697539 0.260037 1.027196
C 4.048318 0.683885 6.982130
C 4.103538 2.051401 9.036523
C 2.752760 1.627553 9.651906
C 2.697539 0.260037 6.366747
C 4.048318 0.683885 12.321681
C 4.103538 2.051401 14.376074
C 2.752760 1.627553 14.991457
C 2.697539 0.260037 11.706298
C 3.369068 2.995323 1.642579
C 3.424288 4.362839 3.696972
C 2.073510 3.938991 4.312355
C 2.018289 2.571475 1.027196
C 3.369068 2.995323 6.982130
C 3.424288 4.362839 9.036523
C 2.073510 3.938991 9.651906
C 2.018289 2.571475 6.366747
C 3.369068 2.995323 12.321681
C 3.424288 4.362839 14.376074
C 2.073510 3.938991 14.991457
C 2.018289 2.571475 11.706298
C 2.689818 5.306761 1.642579
C 2.745038 6.674277 3.696972
C 1.394260 6.250429 4.312355
C 1.339039 4.882913 1.027196
C 2.689818 5.306761 6.982130
C 2.745038 6.674277 9.036523
C 1.394260 6.250429 9.651906
C 1.339039 4.882913 6.366747
C 2.689818 5.306761 12.321681
C 2.745038 6.674277 14.376074
C 1.394260 6.250429 14.991457
C 1.339039 4.882913 11.706298
C 6.541760 0.683885 1.642579
C 6.596981 2.051401 3.696972
C 5.246202 1.627553 4.312355
C 5.190982 0.260037 1.027196
C 6.541760 0.683885 6.982130
C 6.596981 2.051401 9.036523
C 5.246202 1.627553 9.651906
C 5.190982 0.260037 6.366747
C 6.541760 0.683885 12.321681
C 6.596981 2.051401 14.376074
C 5.246202 1.627553 14.991457
C 5.190982 0.260037 11.706298
C 5.862510 2.995323 1.642579
C 5.917731 4.362839 3.696972
C 4.566952 3.938991 4.312355
C 4.511732 2.571475 1.027196
C 5.862510 2.995323 6.982130
C 5.917731 4.362839 9.036523
C 4.566952 3.938991 9.651906
C 4.511732 2.571475 6.366747
C 5.862510 2.995323 12.321681
C 5.917731 4.362839 14.376074
C 4.566952 3.938991 14.991457
C 4.511732 2.571475 11.706298
C 5.183260 5.306761 1.642579
C 5.238481 6.674277 3.696972
C 3.887702 6.250429 4.312355
C 3.832482 4.882913 1.027196
C 5.183260 5.306761 6.982130
C 5.238481 6.674277 9.036523
C 3.887702 6.250429 9.651906
C 3.832482 4.882913 6.366747
C 5.183260 5.306761 12.321681
C 5.238481 6.674277 14.376074
C 3.887702 6.250429 14.991457
C 3.832482 4.882913 11.706298
