108
A
C -0.089788 0.683149 3.727892
C 1.223608 1.485024 3.709511
C -0.775645 1.740367 1.470505
C 1.850766 0.391982 1.454369
C -0.089788 0.683149 8.217368
C 1.223608 1.485024 8.198986
C -0.775645 1.740367 5.959981
C 1.850766 0.391982 5.943844
C -0.089788 0.683149 12.706844
C 1.223608 1.485024 12.688462
C -0.775645 1.740367 10.449457
C 1.850766 0.391982 10.433320
C -1.402802 2.833410 3.727892
C -0.089407 3.635285 3.709511
C -2.088660 3.890628 1.470505
C 0.537751 2.542243 1.454369
C -1.402802 2.833410 8.217368
C -0.089407 3.635285 8.198986
C -2.088660 3.890628 5.959981
C 0.537751 2.542243 5.943844
C -1.402802 2.833410 12.706844
C -0.089407 3.635285 12.688462
C -2.088660 3.890628 10.449457
C 0.537751 2.542243 10.433320
C -2.715817 4.983671 3.727892
C -1.402421 5.785546 3.709511
C -3.401674 6.040889 1.470505
C -0.775264 4.692504 1.454369
C -2.715817 4.983671 8.217368
C -1.402421 5.785546 8.198986
C -3.401674 6.040889 5.959981
C -0.775264 4.692504 5.943844
C -2.715817 4.983671 12.706844
C -1.402421 5.785546 12.688462
C -3.401674 6.040889 10.449457
C -0.775264 4.692504 10.433320
C 2.327698 0.683149 4.419555
C 3.641094 1.485024 4.401173
C 1.641840 1.740367 2.162168
C 4.268251 0.391982 2.146031
C 2.327698 0.683149 8.909030
C 3.641094 1.485024 8.890649
C 1.641840 1.740367 6.651644
C 4.268251 0.391982 6.635507
C 2.327698 0.683149 13.398506
C 3.641094 1.485024 13.380125
C 1.641840 1.740367 11.141119
C 4.268251 0.391982 11.124983
C 1.014683 2.833410 4.419555
C 2.328079 3.635285 4.401173
C 0.328826 3.890628 2.162168
C 2.955236 2.542243 2.146031
C 1.014683 2.833410 8.909030
C 2.328079 3.635285 8.890649
C 0.328826 3.890628 6.651644
C 2.955236 2.542243 6.635507
C 1.014683 2.833410 13.398506
C 2.328079 3.635285 13.380125
C 0.328826 3.890628 11.141119
C 2.955236 2.542243 11.124983
C -0.298332 4.983671 4.419555
C 1.015064 5.785546 4.401173
C -0.984189 6.040889 2.162168
C 1.642221 4.692504 2.146031
C -0.298332 4.983671 8.909030
C 1.015064 5.785546 8.890649
C -0.984189 6.040889 6.651644
C 1.642221 4.692504 6.635507
C -0.298332 4.983671 13.398506
C 1.015064 5.785546 13.380125
C -0.984189 6.040889 11.141119
C 1.642221 4.692504 11.124983
C 4.745183 0.683149 5.111217
C 6.058579 1.485024 5.092836
C 4.059326 1.740367 2.853831
C 6.685736 0.391982 2.837694
C 4.745183 0.683149 9.600693
C 6.058579 1.485024 9.582312
C 4.059326 1.740367 7.343306
C 6.685736 0.391982 7.327170
C 4.745183 0.683149 14.090169
C 6.058579 1.485024 14.071787
C 4.059326 1.740367 11.832782
C 6.685736 0.391982 11.816645
C 3.432168 2.833410 5.111217
C 4.745564 3.635285 5.092836
C 2.746311 3.890628 2.853831
C 5.372722 2.542243 2.837694
C 3.432168 2.833410 9.600693
C 4.745564 3.635285 9.582312
C 2.746311 3.890628 7.343306
C 5.372722 2.542243 7.327170
C 3.432168 2.833410 14.090169
C 4.745564 3.635285 14.071787
C 2.746311 3.890628 11.832782
C 5.372722 2.542243 11.816645
C 2.119154 4.983671 5.111217
C 3.432549 5.785546 5.092836
C 1.433296 6.040889 2.853831
C 4.059707 4.692504 2.837694
C 2.119154 4.983671 9.600693
C 3.432549 5.785546 9.582312
C 1.433296 6.040889 7.343306
C 4.059707 4.692504 7.327170
C 2.119154 4.983671 14.090169
C 3.432549 5.785546 14.071787
C 1.433296 6.040889 11.832782
C 4.059707 4.692504 11.816645
