108
A
C 0.069441 0.768803 4.359923
C 1.352405 1.534155 4.258439
C -0.834842 1.684353 1.571225
C 1.729109 0.304033 1.493650
C 0.069441 0.768803 9.793824
C 1.352405 1.534155 9.692340
C -0.834842 1.684353 7.005126
C 1.729109 0.304033 6.927552
C 0.069441 0.768803 15.227726
C 1.352405 1.534155 15.126242
C -0.834842 1.684353 12.439028
C 1.729109 0.304033 12.361453
C -1.211547 2.914475 4.359923
C 0.071417 3.679827 4.258439
C -2.115830 3.830025 1.571225
C 0.448122 2.449705 1.493650
C -1.211547 2.914475 9.793824
C 0.071417 3.679827 9.692340
C -2.115830 3.830025 7.005126
C 0.448122 2.449705 6.927552
C -1.211547 2.914475 15.227726
C 0.071417 3.679827 15.126242
C -2.115830 3.830025 12.439028
C 0.448122 2.449705 12.361453
C -2.492535 5.060147 4.359923
C -1.209571 5.825499 4.258439
C -3.396818 5.975697 1.571225
C -0.832866 4.595377 1.493650
C -2.492535 5.060147 9.793824
C -1.209571 5.825499 9.692340
C -3.396818 5.975697 7.005126
C -0.832866 4.595377 6.927552
C -2.492535 5.060147 15.227726
C -1.209571 5.825499 15.126242
C -3.396818 5.975697 12.439028
C -0.832866 4.595377 12.361453
C 2.508485 0.768803 4.767640
C 3.791449 1.534155 4.666156
C 1.604202 1.684353 1.978942
C 4.168153 0.304033 1.901367
C 2.508485 0.768803 10.201541
C 3.791449 1.534155 10.100057
C 1.604202 1.684353 7.412843
C 4.168153 0.304033 7.335269
C 2.508485 0.768803 15.635443
C 3.791449 1.534155 15.533959
C 1.604202 1.684353 12.846745
C 4.168153 0.304033 12.769170
C 1.227497 2.914475 4.767640
C 2.510461 3.679827 4.666156
C 0.323214 3.830025 1.978942
C 2.887166 2.449705 1.901367
C 1.227497 2.914475 10.201541
C 2.510461 3.679827 10.100057
C 0.323214 3.830025 7.412843
C 2.887166 2.449705 7.335269
C 1.227497 2.914475 15.635443
C 2.510461 3.679827 15.533959
C 0.323214 3.830025 12.846745
C 2.887166 2.449705 12.769170
C -0.053491 5.060147 4.767640
C 1.229473 5.825499 4.666156
C -0.957773 5.975697 1.978942
C 1.606178 4.595377 1.901367
C -0.053491 5.060147 10.201541
C 1.229473 5.825499 10.100057
C -0.957773 5.975697 7.412843
C 1.606178 4.595377 7.335269
C -0.053491 5.060147 15.635443
C 1.229473 5.825499 15.533959
C -0.957773 5.975697 12.846745
C 1.606178 4.595377 12.769170
C 4.947529 0.768803 5.175356
C 6.230493 1.534155 5.073873
C 4.043246 1.684353 2.386659
C 6.607197 0.304033 2.309084
C 4.947529 0.768803 10.609258
C 6.230493 1.534155 10.507774
C 4.043246 1.684353 7.820560
C 6.607197 0.304033 7.742986
C 4.947529 0.768803 16.043159
C 6.230493 1.534155 15.941676
C 4.043246 1.684353 13.254462
C 6.607197 0.304033 13.176887
C 3.666541 2.914475 5.175356
C 4.949505 3.679827 5.073873
C 2.762258 3.830025 2.386659
C 5.326210 2.449705 2.309084
C 3.666541 2.914475 10.609258
C 4.949505 3.679827 10.507774
C 2.762258 3.830025 7.820560
C 5.326210 2.449705 7.742986
C 3.666541 2.914475 16.043159
C 4.949505 3.679827 15.941676
C 2.762258 3.830025 13.254462
C 5.326210 2.449705 13.176887
C 2.385554 5.060147 5.175356
C 3.668518 5.825499 5.073873
C 1.481271 5.975697 2.386659
C 4.045222 4.595377 2.309084
C 2.385554 5.060147 10.609258
C 3.668518 5.825499 10.507774
C 1.481271 5.975697 7.820560
C 4.045222 4.595377 7.742986
C 2.385554 5.060147 16.043159
C 3.668518 5.825499 15.941676
C 1.481271 5.975697 13.254462
C 4.045222 4.595377 13.176887
