108
A
C 1.473482 0.692959 1.677387
C 1.522812 2.078575 4.048950
C 0.186259 1.572517 4.540556
C 0.136929 0.186902 1.185781
C 1.473482 0.692959 7.403725
C 1.522812 2.078575 9.775287
C 0.186259 1.572517 10.266893
C 0.136929 0.186902 6.912119
C 1.473482 0.692959 13.130062
C 1.522812 2.078575 15.501625
C 0.186259 1.572517 15.993231
C 0.136929 0.186902 12.638456
C 0.646032 2.958436 1.677387
C 0.695362 4.344051 4.048950
C -0.641191 3.837994 4.540556
C -0.690521 2.452378 1.185781
C 0.646032 2.958436 7.403725
C 0.695362 4.344051 9.775287
C -0.641191 3.837994 10.266893
C -0.690521 2.452378 6.912119
C 0.646032 2.958436 13.130062
C 0.695362 4.344051 15.501625
C -0.641191 3.837994 15.993231
C -0.690521 2.452378 12.638456
C -0.181418 5.223913 1.677387
C -0.132088 6.609528 4.048950
C -1.468641 6.103470 4.540556
C -1.517971 4.717855 1.185781
C -0.181418 5.223913 7.403725
C -0.132088 6.609528 9.775287
C -1.468641 6.103470 10.266893
C -1.517971 4.717855 6.912119
C -0.181418 5.223913 13.130062
C -0.132088 6.609528 15.501625
C -1.468641 6.103470 15.993231
C -1.517971 4.717855 12.638456
C 3.960673 0.692959 1.677387
C 4.010004 2.078575 4.048950
C 2.673450 1.572517 4.540556
C 2.624120 0.186902 1.185781
C 3.960673 0.692959 7.403725
C 4.010004 2.078575 9.775287
C 2.673450 1.572517 10.266893
C 2.624120 0.186902 6.912119
C 3.960673 0.692959 13.130062
C 4.010004 2.078575 15.501625
C 2.673450 1.572517 15.993231
C 2.624120 0.186902 12.638456
C 3.133223 2.958436 1.677387
C 3.182554 4.344051 4.048950
C 1.846000 3.837994 4.540556
C 1.796670 2.452378 1.185781
C 3.133223 2.958436 7.403725
C 3.182554 4.344051 9.775287
C 1.846000 3.837994 10.266893
C 1.796670 2.452378 6.912119
C 3.133223 2.958436 13.130062
C 3.182554 4.344051 15.501625
C 1.846000 3.837994 15.993231
C 1.796670 2.452378 12.638456
C 2.305773 5.223913 1.677387
C 2.355104 6.609528 4.048950
C 1.018550 6.103470 4.540556
C 0.969220 4.717855 1.185781
C 2.305773 5.223913 7.403725
C 2.355104 6.609528 9.775287
C 1.018550 6.103470 10.266893
C 0.969220 4.717855 6.912119
C 2.305773 5.223913 13.130062
C 2.355104 6.609528 15.501625
C 1.018550 6.103470 15.993231
C 0.969220 4.717855 12.638456
C 6.447864 0.692959 1.677387
C 6.497195 2.078575 4.048950
C 5.160641 1.572517 4.540556
C 5.111311 0.186902 1.185781
C 6.447864 0.692959 7.403725
C 6.497195 2.078575 9.775287
C 5.160641 1.572517 10.266893
C 5.111311 0.186902 6.912119
C 6.447864 0.692959 13.130062
C 6.497195 2.078575 15.501625
C 5.160641 1.572517 15.993231
C 5.111311 0.186902 12.638456
C 5.620414 2.958436 1.677387
C 5.669745 4.344051 4.048950
C 4.333191 3.837994 4.540556
C 4.283861 2.452378 1.185781
C 5.620414 2.958436 7.403725
C 5.669745 4.344051 9.775287
C 4.333191 3.837994 10.266893
C 4.283861 2.452378 6.912119
C 5.620414 2.958436 13.130062
C 5.669745 4.344051 15.501625
C 4.333191 3.837994 15.993231
C 4.283861 2.452378 12.638456
C 4.792964 5.223913 1.677387
C 4.842295 6.609528 4.048950
C 3.505741 6.103470 4.540556
C 3.456411 4.717855 1.185781
C 4.792964 5.223913 7.403725
C 4.842295 6.609528 9.775287
C 3.505741 6.103470 10.266893
C 3.456411 4.717855 6.912119
C 4.792964 5.223913 13.130062
C 4.842295 6.609528 15.501625
C 3.505741 6.103470 15.993231
C 3.456411 4.717855 12.638456
