108
A
C -0.105774 0.674343 3.657961
C 1.210605 1.479972 3.654144
C -0.769781 1.746125 1.459033
C 1.862898 0.401023 1.455656
C -0.105774 0.674343 8.050572
C 1.210605 1.479972 8.046756
C -0.769781 1.746125 5.851645
C 1.862898 0.401023 5.848267
C -0.105774 0.674343 12.443184
C 1.210605 1.479972 12.439367
C -0.769781 1.746125 10.244256
C 1.862898 0.401023 10.240879
C -1.422073 2.825074 3.657961
C -0.105694 3.630704 3.654144
C -2.086080 3.896857 1.459033
C 0.546598 2.551755 1.455656
C -1.422073 2.825074 8.050572
C -0.105694 3.630704 8.046756
C -2.086080 3.896857 5.851645
C 0.546598 2.551755 5.848267
C -1.422073 2.825074 12.443184
C -0.105694 3.630704 12.439367
C -2.086080 3.896857 10.244256
C 0.546598 2.551755 10.240879
C -2.738373 4.975806 3.657961
C -1.421994 5.781435 3.654144
C -3.402380 6.047588 1.459033
C -0.769701 4.702486 1.455656
C -2.738373 4.975806 8.050572
C -1.421994 5.781435 8.046756
C -3.402380 6.047588 5.851645
C -0.769701 4.702486 5.848267
C -2.738373 4.975806 12.443184
C -1.421994 5.781435 12.439367
C -3.402380 6.047588 10.244256
C -0.769701 4.702486 10.240879
C 2.309501 0.674343 4.378746
C 3.625880 1.479972 4.374929
C 1.645494 1.746125 2.179818
C 4.278172 0.401023 2.176441
C 2.309501 0.674343 8.771358
C 3.625880 1.479972 8.767541
C 1.645494 1.746125 6.572430
C 4.278172 0.401023 6.569052
C 2.309501 0.674343 13.163969
C 3.625880 1.479972 13.160152
C 1.645494 1.746125 10.965041
C 4.278172 0.401023 10.961664
C 0.993201 2.825074 4.378746
C 2.309580 3.630704 4.374929
C 0.329194 3.896857 2.179818
C 2.961873 2.551755 2.176441
C 0.993201 2.825074 8.771358
C 2.309580 3.630704 8.767541
C 0.329194 3.896857 6.572430
C 2.961873 2.551755 6.569052
C 0.993201 2.825074 13.163969
C 2.309580 3.630704 13.160152
C 0.329194 3.896857 10.965041
C 2.961873 2.551755 10.961664
C -0.323099 4.975806 4.378746
C 0.993280 5.781435 4.374929
C -0.987105 6.047588 2.179818
C 1.645573 4.702486 2.176441
C -0.323099 4.975806 8.771358
C 0.993280 5.781435 8.767541
C -0.987105 6.047588 6.572430
C 1.645573 4.702486 6.569052
C -0.323099 4.975806 13.163969
C 0.993280 5.781435 13.160152
C -0.987105 6.047588 10.965041
C 1.645573 4.702486 10.961664
C 4.724775 0.674343 5.099531
C 6.041154 1.479972 5.095715
C 4.060768 1.746125 2.900604
C 6.693447 0.401023 2.897226
C 4.724775 0.674343 9.492143
C 6.041154 1.479972 9.488326
C 4.060768 1.746125 7.293215
C 6.693447 0.401023 7.289838
C 4.724775 0.674343 13.884755
C 6.041154 1.479972 13.880938
C 4.060768 1.746125 11.685827
C 6.693447 0.401023 11.682449
C 3.408475 2.825074 5.099531
C 4.724854 3.630704 5.095715
C 2.744468 3.896857 2.900604
C 5.377147 2.551755 2.897226
C 3.408475 2.825074 9.492143
C 4.724854 3.630704 9.488326
C 2.744468 3.896857 7.293215
C 5.377147 2.551755 7.289838
C 3.408475 2.825074 13.884755
C 4.724854 3.630704 13.880938
C 2.744468 3.896857 11.685827
C 5.377147 2.551755 11.682449
C 2.092176 4.975806 5.099531
C 3.408555 5.781435 5.095715
C 1.428169 6.047588 2.900604
C 4.060847 4.702486 2.897226
C 2.092176 4.975806 9.492143
C 3.408555 5.781435 9.488326
C 1.428169 6.047588 7.293215
C 4.060847 4.702486 7.289838
C 2.092176 4.975806 13.884755
C 3.408555 5.781435 13.880938
C 1.428169 6.047588 11.685827
C 4.060847 4.702486 11.682449
