108
A
C 1.793875 0.649081 1.457334
C 1.825356 1.947159 2.657394
C 0.509414 1.807902 3.514697
C 0.477932 0.509824 0.600030
C 1.793875 0.649081 5.572061
C 1.825356 1.947159 6.772121
C 0.509414 1.807902 7.629425
C 0.477932 0.509824 4.714758
C 1.793875 0.649081 9.686788
C 1.825356 1.947159 10.886849
C 0.509414 1.807902 11.744152
C 0.477932 0.509824 8.829485
C 1.583925 3.106063 1.457334
C 1.615406 4.404141 2.657394
C 0.299464 4.264884 3.514697
C 0.267982 2.966806 0.600030
C 1.583925 3.106063 5.572061
C 1.615406 4.404141 6.772121
C 0.299464 4.264884 7.629425
C 0.267982 2.966806 4.714758
C 1.583925 3.106063 9.686788
C 1.615406 4.404141 10.886849
C 0.299464 4.264884 11.744152
C 0.267982 2.966806 8.829485
C 1.373975 5.563045 1.457334
C 1.405456 6.861123 2.657394
C 0.089514 6.721866 3.514697
C 0.058032 5.423789 0.600030
C 1.373975 5.563045 5.572061
C 1.405456 6.861123 6.772121
C 0.089514 6.721866 7.629425
C 0.058032 5.423789 4.714758
C 1.373975 5.563045 9.686788
C 1.405456 6.861123 10.886849
C 0.089514 6.721866 11.744152
C 0.058032 5.423789 8.829485
C 4.307113 0.649081 1.457334
C 4.338594 1.947159 2.657394
C 3.022652 1.807902 3.514697
C 2.991171 0.509824 0.600030
C 4.307113 0.649081 5.572061
C 4.338594 1.947159 6.772121
C 3.022652 1.807902 7.629425
C 2.991171 0.509824 4.714758
C 4.307113 0.649081 9.686788
C 4.338594 1.947159 10.886849
C 3.022652 1.807902 11.744152
C 2.991171 0.509824 8.829485
C 4.097163 3.106063 1.457334
C 4.128644 4.404141 2.657394
C 2.812702 4.264884 3.514697
C 2.781221 2.966806 0.600030
C 4.097163 3.106063 5.572061
C 4.128644 4.404141 6.772121
C 2.812702 4.264884 7.629425
C 2.781221 2.966806 4.714758
C 4.097163 3.106063 9.686788
C 4.128644 4.404141 10.886849
C 2.812702 4.264884 11.744152
C 2.781221 2.966806 8.829485
C 3.887213 5.563045 1.457334
C 3.918694 6.861123 2.657394
C 2.602752 6.721866 3.514697
C 2.571271 5.423789 0.600030
C 3.887213 5.563045 5.572061
C 3.918694 6.861123 6.772121
C 2.602752 6.721866 7.629425
C 2.571271 5.423789 4.714758
C 3.887213 5.563045 9.686788
C 3.918694 6.861123 10.886849
C 2.602752 6.721866 11.744152
C 2.571271 5.423789 8.829485
C 6.820351 0.649081 1.457334
C 6.851833 1.947159 2.657394
C 5.535890 1.807902 3.514697
C 5.504409 0.509824 0.600030
C 6.820351 0.649081 5.572061
C 6.851833 1.947159 6.772121
C 5.535890 1.807902 7.629425
C 5.504409 0.509824 4.714758
C 6.820351 0.649081 9.686788
C 6.851833 1.947159 10.886849
C 5.535890 1.807902 11.744152
C 5.504409 0.509824 8.829485
C 6.610401 3.106063 1.457334
C 6.641883 4.404141 2.657394
C 5.325940 4.264884 3.514697
C 5.294459 2.966806 0.600030
C 6.610401 3.106063 5.572061
C 6.641883 4.404141 6.772121
C 5.325940 4.264884 7.629425
C 5.294459 2.966806 4.714758
C 6.610401 3.106063 9.686788
C 6.641883 4.404141 10.886849
C 5.325940 4.264884 11.744152
C 5.294459 2.966806 8.829485
C 6.400451 5.563045 1.457334
C 6.431933 6.861123 2.657394
C 5.115990 6.721866 3.514697
C 5.084509 5.423789 0.600030
C 6.400451 5.563045 5.572061
C 6.431933 6.861123 6.772121
C 5.115990 6.721866 7.629425
C 5.084509 5.423789 4.714758
C 6.400451 5.563045 9.686788
C 6.431933 6.861123 10.886849
C 5.115990 6.721866 11.744152
C 5.084509 5.423789 8.829485
