108
A
C 0.278148 0.875892 5.025966
C 1.519419 1.595568 4.971527
C -0.914411 1.614292 1.669140
C 1.567608 0.194062 1.676271
C 0.278148 0.875892 11.646454
C 1.519419 1.595568 11.592015
C -0.914411 1.614292 8.289628
C 1.567608 0.194062 8.296759
C 0.278148 0.875892 18.266942
C 1.519419 1.595568 18.212503
C -0.914411 1.614292 14.910115
C 1.567608 0.194062 14.917247
C -0.962600 3.015798 5.025966
C 0.278670 3.735474 4.971527
C -2.155159 3.754198 1.669140
C 0.326860 2.333968 1.676271
C -0.962600 3.015798 11.646454
C 0.278670 3.735474 11.592015
C -2.155159 3.754198 8.289628
C 0.326860 2.333968 8.296759
C -0.962600 3.015798 18.266942
C 0.278670 3.735474 18.212503
C -2.155159 3.754198 14.910115
C 0.326860 2.333968 14.917247
C -2.203349 5.155704 5.025966
C -0.962078 5.875381 4.971527
C -3.395908 5.894105 1.669140
C -0.913889 4.473874 1.676271
C -2.203349 5.155704 11.646454
C -0.962078 5.875381 11.592015
C -3.395908 5.894105 8.289628
C -0.913889 4.473874 8.296759
C -2.203349 5.155704 18.266942
C -0.962078 5.875381 18.212503
C -3.395908 5.894105 14.910115
C -0.913889 4.473874 14.917247
C 2.744279 0.875892 5.076931
C 3.985549 1.595568 5.022492
C 1.551720 1.614292 1.720104
C 4.033739 0.194062 1.727236
C 2.744279 0.875892 11.697419
C 3.985549 1.595568 11.642979
C 1.551720 1.614292 8.340592
C 4.033739 0.194062 8.347723
C 2.744279 0.875892 18.317906
C 3.985549 1.595568 18.263467
C 1.551720 1.614292 14.961080
C 4.033739 0.194062 14.968211
C 1.503530 3.015798 5.076931
C 2.744801 3.735474 5.022492
C 0.310971 3.754198 1.720104
C 2.792990 2.333968 1.727236
C 1.503530 3.015798 11.697419
C 2.744801 3.735474 11.642979
C 0.310971 3.754198 8.340592
C 2.792990 2.333968 8.347723
C 1.503530 3.015798 18.317906
C 2.744801 3.735474 18.263467
C 0.310971 3.754198 14.961080
C 2.792990 2.333968 14.968211
C 0.262782 5.155704 5.076931
C 1.504052 5.875381 5.022492
C -0.929777 5.894105 1.720104
C 1.552242 4.473874 1.727236
C 0.262782 5.155704 11.697419
C 1.504052 5.875381 11.642979
C -0.929777 5.894105 8.340592
C 1.552242 4.473874 8.347723
C 0.262782 5.155704 18.317906
C 1.504052 5.875381 18.263467
C -0.929777 5.894105 14.961080
C 1.552242 4.473874 14.968211
C 5.210409 0.875892 5.127896
C 6.451680 1.595568 5.073456
C 4.017850 1.614292 1.771069
C 6.499869 0.194062 1.778200
C 5.210409 0.875892 11.748383
C 6.451680 1.595568 11.693944
C 4.017850 1.614292 8.391557
C 6.499869 0.194062 8.398688
C 5.210409 0.875892 18.368871
C 6.451680 1.595568 18.314432
C 4.017850 1.614292 15.012044
C 6.499869 0.194062 15.019176
C 3.969661 3.015798 5.127896
C 5.210931 3.735474 5.073456
C 2.777102 3.754198 1.771069
C 5.259121 2.333968 1.778200
C 3.969661 3.015798 11.748383
C 5.210931 3.735474 11.693944
C 2.777102 3.754198 8.391557
C 5.259121 2.333968 8.398688
C 3.969661 3.015798 18.368871
C 5.210931 3.735474 18.314432
C 2.777102 3.754198 15.012044
C 5.259121 2.333968 15.019176
C 2.728912 5.155704 5.127896
C 3.970183 5.875381 5.073456
C 1.536353 5.894105 1.771069
C 4.018372 4.473874 1.778200
C 2.728912 5.155704 11.748383
C 3.970183 5.875381 11.693944
C 1.536353 5.894105 8.391557
C 4.018372 4.473874 8.398688
C 2.728912 5.155704 18.368871
C 3.970183 5.875381 18.314432
C 1.536353 5.894105 15.012044
C 4.018372 4.473874 15.019176
