108
A
C -0.045495 0.707345 3.915303
C 1.259565 1.498904 3.862665
C -0.791971 1.724546 1.500958
C 1.817070 0.367138 1.455929
C -0.045495 0.707345 8.671155
C 1.259565 1.498904 8.618517
C -0.791971 1.724546 6.256811
C 1.817070 0.367138 6.211781
C -0.045495 0.707345 13.427008
C 1.259565 1.498904 13.374369
C -0.791971 1.724546 11.012663
C 1.817070 0.367138 10.967633
C -1.349476 2.856312 3.915303
C -0.044417 3.647871 3.862665
C -2.095952 3.873512 1.500958
C 0.513089 2.516105 1.455929
C -1.349476 2.856312 8.671155
C -0.044417 3.647871 8.618517
C -2.095952 3.873512 6.256811
C 0.513089 2.516105 6.211781
C -1.349476 2.856312 13.427008
C -0.044417 3.647871 13.374369
C -2.095952 3.873512 11.012663
C 0.513089 2.516105 10.967633
C -2.653458 5.005279 3.915303
C -1.348398 5.796837 3.862665
C -3.399934 6.022479 1.500958
C -0.790893 4.665071 1.455929
C -2.653458 5.005279 8.671155
C -1.348398 5.796837 8.618517
C -3.399934 6.022479 6.256811
C -0.790893 4.665071 6.211781
C -2.653458 5.005279 13.427008
C -1.348398 5.796837 13.374369
C -3.399934 6.022479 11.012663
C -0.790893 4.665071 10.967633
C 2.378071 0.707345 4.526879
C 3.683131 1.498904 4.474240
C 1.631595 1.724546 2.112534
C 4.240636 0.367138 2.067504
C 2.378071 0.707345 9.282731
C 3.683131 1.498904 9.230092
C 1.631595 1.724546 6.868386
C 4.240636 0.367138 6.823357
C 2.378071 0.707345 14.038583
C 3.683131 1.498904 13.985944
C 1.631595 1.724546 11.624238
C 4.240636 0.367138 11.579209
C 1.074090 2.856312 4.526879
C 2.379149 3.647871 4.474240
C 0.327614 3.873512 2.112534
C 2.936655 2.516105 2.067504
C 1.074090 2.856312 9.282731
C 2.379149 3.647871 9.230092
C 0.327614 3.873512 6.868386
C 2.936655 2.516105 6.823357
C 1.074090 2.856312 14.038583
C 2.379149 3.647871 13.985944
C 0.327614 3.873512 11.624238
C 2.936655 2.516105 11.579209
C -0.229892 5.005279 4.526879
C 1.075168 5.796837 4.474240
C -0.976368 6.022479 2.112534
C 1.632673 4.665071 2.067504
C -0.229892 5.005279 9.282731
C 1.075168 5.796837 9.230092
C -0.976368 6.022479 6.868386
C 1.632673 4.665071 6.823357
C -0.229892 5.005279 14.038583
C 1.075168 5.796837 13.985944
C -0.976368 6.022479 11.624238
C 1.632673 4.665071 11.579209
C 4.801637 0.707345 5.138454
C 6.106697 1.498904 5.085815
C 4.055161 1.724546 2.724109
C 6.664202 0.367138 2.679080
C 4.801637 0.707345 9.894306
C 6.106697 1.498904 9.841668
C 4.055161 1.724546 7.479961
C 6.664202 0.367138 7.434932
C 4.801637 0.707345 14.650158
C 6.106697 1.498904 14.597520
C 4.055161 1.724546 12.235814
C 6.664202 0.367138 12.190784
C 3.497656 2.856312 5.138454
C 4.802715 3.647871 5.085815
C 2.751180 3.873512 2.724109
C 5.360221 2.516105 2.679080
C 3.497656 2.856312 9.894306
C 4.802715 3.647871 9.841668
C 2.751180 3.873512 7.479961
C 5.360221 2.516105 7.434932
C 3.497656 2.856312 14.650158
C 4.802715 3.647871 14.597520
C 2.751180 3.873512 12.235814
C 5.360221 2.516105 12.190784
C 2.193674 5.005279 5.138454
C 3.498734 5.796837 5.085815
C 1.447198 6.022479 2.724109
C 4.056239 4.665071 2.679080
C 2.193674 5.005279 9.894306
C 3.498734 5.796837 9.841668
C 1.447198 6.022479 7.479961
C 4.056239 4.665071 7.434932
C 2.193674 5.005279 14.650158
C 3.498734 5.796837 14.597520
C 1.447198 6.022479 12.235814
C 4.056239 4.665071 12.190784
