108
A
C 0.286871 0.880250 5.050123
C 1.526359 1.598067 5.001187
C -0.917782 1.611440 1.672459
C 1.560812 0.189586 1.686877
C 0.286871 0.880250 11.719043
C 1.526359 1.598067 11.670106
C -0.917782 1.611440 8.341379
C 1.560812 0.189586 8.355797
C 0.286871 0.880250 18.387963
C 1.526359 1.598067 18.339026
C -0.917782 1.611440 15.010299
C 1.560812 0.189586 15.024717
C -0.952235 3.019921 5.050123
C 0.287252 3.737738 5.001187
C -2.156888 3.751111 1.672459
C 0.321706 2.329257 1.686877
C -0.952235 3.019921 11.719043
C 0.287252 3.737738 11.670106
C -2.156888 3.751111 8.341379
C 0.321706 2.329257 8.355797
C -0.952235 3.019921 18.387963
C 0.287252 3.737738 18.339026
C -2.156888 3.751111 15.010299
C 0.321706 2.329257 15.024717
C -2.191341 5.159592 5.050123
C -0.951854 5.877409 5.001187
C -3.395994 5.890782 1.672459
C -0.917401 4.468928 1.686877
C -2.191341 5.159592 11.719043
C -0.951854 5.877409 11.670106
C -3.395994 5.890782 8.341379
C -0.917401 4.468928 8.355797
C -2.191341 5.159592 18.387963
C -0.951854 5.877409 18.339026
C -3.395994 5.890782 15.010299
C -0.917401 4.468928 15.024717
C 2.754108 0.880250 5.086526
C 3.993595 1.598067 5.037590
C 1.549455 1.611440 1.708862
C 4.028048 0.189586 1.723281
C 2.754108 0.880250 11.755446
C 3.993595 1.598067 11.706510
C 1.549455 1.611440 8.377782
C 4.028048 0.189586 8.392201
C 2.754108 0.880250 18.424366
C 3.993595 1.598067 18.375429
C 1.549455 1.611440 15.046702
C 4.028048 0.189586 15.061120
C 1.515002 3.019921 5.086526
C 2.754489 3.737738 5.037590
C 0.310349 3.751111 1.708862
C 2.788942 2.329257 1.723281
C 1.515002 3.019921 11.755446
C 2.754489 3.737738 11.706510
C 0.310349 3.751111 8.377782
C 2.788942 2.329257 8.392201
C 1.515002 3.019921 18.424366
C 2.754489 3.737738 18.375429
C 0.310349 3.751111 15.046702
C 2.788942 2.329257 15.061120
C 0.275895 5.159592 5.086526
C 1.515383 5.877409 5.037590
C -0.928758 5.890782 1.708862
C 1.549836 4.468928 1.723281
C 0.275895 5.159592 11.755446
C 1.515383 5.877409 11.706510
C -0.928758 5.890782 8.377782
C 1.549836 4.468928 8.392201
C 0.275895 5.159592 18.424366
C 1.515383 5.877409 18.375429
C -0.928758 5.890782 15.046702
C 1.549836 4.468928 15.061120
C 5.221344 0.880250 5.122930
C 6.460831 1.598067 5.073993
C 4.016691 1.611440 1.745266
C 6.495284 0.189586 1.759684
C 5.221344 0.880250 11.791849
C 6.460831 1.598067 11.742913
C 4.016691 1.611440 8.414186
C 6.495284 0.189586 8.428604
C 5.221344 0.880250 18.460769
C 6.460831 1.598067 18.411833
C 4.016691 1.611440 15.083105
C 6.495284 0.189586 15.097524
C 3.982238 3.019921 5.122930
C 5.221725 3.737738 5.073993
C 2.777585 3.751111 1.745266
C 5.256178 2.329257 1.759684
C 3.982238 3.019921 11.791849
C 5.221725 3.737738 11.742913
C 2.777585 3.751111 8.414186
C 5.256178 2.329257 8.428604
C 3.982238 3.019921 18.460769
C 5.221725 3.737738 18.411833
C 2.777585 3.751111 15.083105
C 5.256178 2.329257 15.097524
C 2.743132 5.159592 5.122930
C 3.982619 5.877409 5.073993
C 1.538479 5.890782 1.745266
C 4.017072 4.468928 1.759684
C 2.743132 5.159592 11.791849
C 3.982619 5.877409 11.742913
C 1.538479 5.890782 8.414186
C 4.017072 4.468928 8.428604
C 2.743132 5.159592 18.460769
C 3.982619 5.877409 18.411833
C 1.538479 5.890782 15.083105
C 4.017072 4.468928 15.097524
