108
A
C -0.000717 0.731512 4.095528
C 1.295812 1.512767 4.017132
C -0.808588 1.708742 1.529805
C 1.782889 0.342324 1.464969
C -0.000717 0.731512 9.117757
C 1.295812 1.512767 9.039361
C -0.808588 1.708742 6.552033
C 1.782889 0.342324 6.487197
C -0.000717 0.731512 14.139986
C 1.295812 1.512767 14.061590
C -0.808588 1.708742 11.574262
C 1.782889 0.342324 11.509426
C -1.295665 2.879185 4.095528
C 0.000864 3.660439 4.017132
C -2.103536 3.856414 1.529805
C 0.487941 2.489996 1.464969
C -1.295665 2.879185 9.117757
C 0.000864 3.660439 9.039361
C -2.103536 3.856414 6.552033
C 0.487941 2.489996 6.487197
C -1.295665 2.879185 14.139986
C 0.000864 3.660439 14.061590
C -2.103536 3.856414 11.574262
C 0.487941 2.489996 11.509426
C -2.590613 5.026857 4.095528
C -1.294084 5.808111 4.017132
C -3.398484 6.004086 1.529805
C -0.807007 4.637669 1.464969
C -2.590613 5.026857 9.117757
C -1.294084 5.808111 9.039361
C -3.398484 6.004086 6.552033
C -0.807007 4.637669 6.487197
C -2.590613 5.026857 14.139986
C -1.294084 5.808111 14.061590
C -3.398484 6.004086 11.574262
C -0.807007 4.637669 11.509426
C 2.428930 0.731512 4.627016
C 3.725459 1.512767 4.548620
C 1.621059 1.708742 2.061293
C 4.212536 0.342324 1.996457
C 2.428930 0.731512 9.649245
C 3.725459 1.512767 9.570849
C 1.621059 1.708742 7.083521
C 4.212536 0.342324 7.018686
C 2.428930 0.731512 14.671474
C 3.725459 1.512767 14.593078
C 1.621059 1.708742 12.105750
C 4.212536 0.342324 12.040914
C 1.133982 2.879185 4.627016
C 2.430511 3.660439 4.548620
C 0.326111 3.856414 2.061293
C 2.917588 2.489996 1.996457
C 1.133982 2.879185 9.649245
C 2.430511 3.660439 9.570849
C 0.326111 3.856414 7.083521
C 2.917588 2.489996 7.018686
C 1.133982 2.879185 14.671474
C 2.430511 3.660439 14.593078
C 0.326111 3.856414 12.105750
C 2.917588 2.489996 12.040914
C -0.160967 5.026857 4.627016
C 1.135563 5.808111 4.548620
C -0.968838 6.004086 2.061293
C 1.622640 4.637669 1.996457
C -0.160967 5.026857 9.649245
C 1.135563 5.808111 9.570849
C -0.968838 6.004086 7.083521
C 1.622640 4.637669 7.018686
C -0.160967 5.026857 14.671474
C 1.135563 5.808111 14.593078
C -0.968838 6.004086 12.105750
C 1.622640 4.637669 12.040914
C 4.858577 0.731512 5.158504
C 6.155106 1.512767 5.080108
C 4.050705 1.708742 2.592781
C 6.642183 0.342324 2.527945
C 4.858577 0.731512 10.180733
C 6.155106 1.512767 10.102337
C 4.050705 1.708742 7.615010
C 6.642183 0.342324 7.550174
C 4.858577 0.731512 15.202962
C 6.155106 1.512767 15.124566
C 4.050705 1.708742 12.637238
C 6.642183 0.342324 12.572402
C 3.563628 2.879185 5.158504
C 4.860157 3.660439 5.080108
C 2.755757 3.856414 2.592781
C 5.347235 2.489996 2.527945
C 3.563628 2.879185 10.180733
C 4.860157 3.660439 10.102337
C 2.755757 3.856414 7.615010
C 5.347235 2.489996 7.550174
C 3.563628 2.879185 15.202962
C 4.860157 3.660439 15.124566
C 2.755757 3.856414 12.637238
C 5.347235 2.489996 12.572402
C 2.268680 5.026857 5.158504
C 3.565209 5.808111 5.080108
C 1.460809 6.004086 2.592781
C 4.052286 4.637669 2.527945
C 2.268680 5.026857 10.180733
C 3.565209 5.808111 10.102337
C 1.460809 6.004086 7.615010
C 4.052286 4.637669 7.550174
C 2.268680 5.026857 15.202962
C 3.565209 5.808111 15.124566
C 1.460809 6.004086 12.637238
C 4.052286 4.637669 12.572402
