108
A
C 0.077771 0.773185 4.389899
C 1.359108 1.536669 4.287034
C -0.837977 1.681486 1.575845
C 1.722706 0.299533 1.498199
C 0.077771 0.773185 9.872233
C 1.359108 1.536669 9.769368
C -0.837977 1.681486 7.058179
C 1.722706 0.299533 6.980533
C 0.077771 0.773185 15.354567
C 1.359108 1.536669 15.251701
C -0.837977 1.681486 12.540513
C 1.722706 0.299533 12.462866
C -1.201574 2.918622 4.389899
C 0.079763 3.682106 4.287034
C -2.117322 3.826923 1.575845
C 0.443361 2.444970 1.498199
C -1.201574 2.918622 9.872233
C 0.079763 3.682106 9.769368
C -2.117322 3.826923 7.058179
C 0.443361 2.444970 6.980533
C -1.201574 2.918622 15.354567
C 0.079763 3.682106 15.251701
C -2.117322 3.826923 12.540513
C 0.443361 2.444970 12.462866
C -2.480920 5.064059 4.389899
C -1.199582 5.827542 4.287034
C -3.396667 5.972359 1.575845
C -0.835984 4.590406 1.498199
C -2.480920 5.064059 9.872233
C -1.199582 5.827542 9.769368
C -3.396667 5.972359 7.058179
C -0.835984 4.590406 6.980533
C -2.480920 5.064059 15.354567
C -1.199582 5.827542 15.251701
C -3.396667 5.972359 12.540513
C -0.835984 4.590406 12.462866
C 2.517920 0.773185 4.783055
C 3.799258 1.536669 4.680190
C 1.602173 1.681486 1.969001
C 4.162856 0.299533 1.891355
C 2.517920 0.773185 10.265389
C 3.799258 1.536669 10.162524
C 1.602173 1.681486 7.451335
C 4.162856 0.299533 7.373688
C 2.517920 0.773185 15.747722
C 3.799258 1.536669 15.644857
C 1.602173 1.681486 12.933668
C 4.162856 0.299533 12.856022
C 1.238575 2.918622 4.783055
C 2.519913 3.682106 4.680190
C 0.322828 3.826923 1.969001
C 2.883510 2.444970 1.891355
C 1.238575 2.918622 10.265389
C 2.519913 3.682106 10.162524
C 0.322828 3.826923 7.451335
C 2.883510 2.444970 7.373688
C 1.238575 2.918622 15.747722
C 2.519913 3.682106 15.644857
C 0.322828 3.826923 12.933668
C 2.883510 2.444970 12.856022
C -0.040770 5.064059 4.783055
C 1.240568 5.827542 4.680190
C -0.956518 5.972359 1.969001
C 1.604165 4.590406 1.891355
C -0.040770 5.064059 10.265389
C 1.240568 5.827542 10.162524
C -0.956518 5.972359 7.451335
C 1.604165 4.590406 7.373688
C -0.040770 5.064059 15.747722
C 1.240568 5.827542 15.644857
C -0.956518 5.972359 12.933668
C 1.604165 4.590406 12.856022
C 4.958070 0.773185 5.176211
C 6.239408 1.536669 5.073346
C 4.042322 1.681486 2.362157
C 6.603005 0.299533 2.284510
C 4.958070 0.773185 10.658544
C 6.239408 1.536669 10.555679
C 4.042322 1.681486 7.844490
C 6.603005 0.299533 7.766844
C 4.958070 0.773185 16.140878
C 6.239408 1.536669 16.038013
C 4.042322 1.681486 13.326824
C 6.603005 0.299533 13.249177
C 3.678725 2.918622 5.176211
C 4.960062 3.682106 5.073346
C 2.762977 3.826923 2.362157
C 5.323660 2.444970 2.284510
C 3.678725 2.918622 10.658544
C 4.960062 3.682106 10.555679
C 2.762977 3.826923 7.844490
C 5.323660 2.444970 7.766844
C 3.678725 2.918622 16.140878
C 4.960062 3.682106 16.038013
C 2.762977 3.826923 13.326824
C 5.323660 2.444970 13.249177
C 2.399380 5.064059 5.176211
C 3.680717 5.827542 5.073346
C 1.483632 5.972359 2.362157
C 4.044315 4.590406 2.284510
C 2.399380 5.064059 10.658544
C 3.680717 5.827542 10.555679
C 1.483632 5.972359 7.844490
C 4.044315 4.590406 7.766844
C 2.399380 5.064059 16.140878
C 3.680717 5.827542 16.038013
C 1.483632 5.972359 13.326824
C 4.044315 4.590406 13.249177
