108
A
C 0.003378 0.733708 4.111556
C 1.299122 1.514026 4.031240
C -0.810113 1.707306 1.532347
C 1.779758 0.340070 1.466161
C 0.003378 0.733708 9.158001
C 1.299122 1.514026 9.077685
C -0.810113 1.707306 6.578792
C 1.779758 0.340070 6.512606
C 0.003378 0.733708 14.204445
C 1.299122 1.514026 14.124129
C -0.810113 1.707306 11.625237
C 1.779758 0.340070 11.559051
C -1.290749 2.881262 4.111556
C 0.004995 3.661581 4.031240
C -2.104240 3.854861 1.532347
C 0.485631 2.487624 1.466161
C -1.290749 2.881262 9.158001
C 0.004995 3.661581 9.077685
C -2.104240 3.854861 6.578792
C 0.485631 2.487624 6.512606
C -1.290749 2.881262 14.204445
C 0.004995 3.661581 14.124129
C -2.104240 3.854861 11.625237
C 0.485631 2.487624 11.559051
C -2.584876 5.028817 4.111556
C -1.289132 5.809135 4.031240
C -3.398367 6.002415 1.532347
C -0.808496 4.635179 1.466161
C -2.584876 5.028817 9.158001
C -1.289132 5.809135 9.077685
C -3.398367 6.002415 6.578792
C -0.808496 4.635179 6.512606
C -2.584876 5.028817 14.204445
C -1.289132 5.809135 14.124129
C -3.398367 6.002415 11.625237
C -0.808496 4.635179 11.559051
C 2.433577 0.733708 4.635763
C 3.729321 1.514026 4.555447
C 1.620086 1.707306 2.056555
C 4.209957 0.340070 1.990369
C 2.433577 0.733708 9.682208
C 3.729321 1.514026 9.601892
C 1.620086 1.707306 7.103000
C 4.209957 0.340070 7.036814
C 2.433577 0.733708 14.728653
C 3.729321 1.514026 14.648337
C 1.620086 1.707306 12.149444
C 4.209957 0.340070 12.083258
C 1.139450 2.881262 4.635763
C 2.435194 3.661581 4.555447
C 0.325959 3.854861 2.056555
C 2.915830 2.487624 1.990369
C 1.139450 2.881262 9.682208
C 2.435194 3.661581 9.601892
C 0.325959 3.854861 7.103000
C 2.915830 2.487624 7.036814
C 1.139450 2.881262 14.728653
C 2.435194 3.661581 14.648337
C 0.325959 3.854861 12.149444
C 2.915830 2.487624 12.083258
C -0.154677 5.028817 4.635763
C 1.141067 5.809135 4.555447
C -0.968167 6.002415 2.056555
C 1.621703 4.635179 1.990369
C -0.154677 5.028817 9.682208
C 1.141067 5.809135 9.601892
C -0.968167 6.002415 7.103000
C 1.621703 4.635179 7.036814
C -0.154677 5.028817 14.728653
C 1.141067 5.809135 14.648337
C -0.968167 6.002415 12.149444
C 1.621703 4.635179 12.083258
C 4.863777 0.733708 5.159971
C 6.159521 1.514026 5.079655
C 4.050286 1.707306 2.580762
C 6.640157 0.340070 2.514576
C 4.863777 0.733708 10.206416
C 6.159521 1.514026 10.126100
C 4.050286 1.707306 7.627207
C 6.640157 0.340070 7.561021
C 4.863777 0.733708 15.252860
C 6.159521 1.514026 15.172544
C 4.050286 1.707306 12.673652
C 6.640157 0.340070 12.607466
C 3.569650 2.881262 5.159971
C 4.865394 3.661581 5.079655
C 2.756159 3.854861 2.580762
C 5.346030 2.487624 2.514576
C 3.569650 2.881262 10.206416
C 4.865394 3.661581 10.126100
C 2.756159 3.854861 7.627207
C 5.346030 2.487624 7.561021
C 3.569650 2.881262 15.252860
C 4.865394 3.661581 15.172544
C 2.756159 3.854861 12.673652
C 5.346030 2.487624 12.607466
C 2.275523 5.028817 5.159971
C 3.571267 5.809135 5.079655
C 1.462032 6.002415 2.580762
C 4.051903 4.635179 2.514576
C 2.275523 5.028817 10.206416
C 3.571267 5.809135 10.126100
C 1.462032 6.002415 7.627207
C 4.051903 4.635179 7.561021
C 2.275523 5.028817 15.252860
C 3.571267 5.809135 15.172544
C 1.462032 6.002415 12.673652
C 4.051903 4.635179 12.607466
