108
A
C 1.607559 0.677325 1.613057
C 1.663136 2.031753 3.468637
C 0.309601 1.664754 4.153903
C 0.254024 0.310325 0.927790
C 1.607559 0.677325 6.694750
C 1.663136 2.031753 8.550330
C 0.309601 1.664754 9.235597
C 0.254024 0.310325 6.009484
C 1.607559 0.677325 11.776443
C 1.663136 2.031753 13.632024
C 0.309601 1.664754 14.317290
C 0.254024 0.310325 11.091177
C 1.027109 3.019403 1.613057
C 1.082686 4.373832 3.468637
C -0.270849 4.006833 4.153903
C -0.326426 2.652404 0.927790
C 1.027109 3.019403 6.694750
C 1.082686 4.373832 8.550330
C -0.270849 4.006833 9.235597
C -0.326426 2.652404 6.009484
C 1.027109 3.019403 11.776443
C 1.082686 4.373832 13.632024
C -0.270849 4.006833 14.317290
C -0.326426 2.652404 11.091177
C 0.446659 5.361482 1.613057
C 0.502236 6.715911 3.468637
C -0.851299 6.348912 4.153903
C -0.906876 4.994483 0.927790
C 0.446659 5.361482 6.694750
C 0.502236 6.715911 8.550330
C -0.851299 6.348912 9.235597
C -0.906876 4.994483 6.009484
C 0.446659 5.361482 11.776443
C 0.502236 6.715911 13.632024
C -0.851299 6.348912 14.317290
C -0.906876 4.994483 11.091177
C 4.105169 0.677325 1.613057
C 4.160746 2.031753 3.468637
C 2.807211 1.664754 4.153903
C 2.751634 0.310325 0.927790
C 4.105169 0.677325 6.694750
C 4.160746 2.031753 8.550330
C 2.807211 1.664754 9.235597
C 2.751634 0.310325 6.009484
C 4.105169 0.677325 11.776443
C 4.160746 2.031753 13.632024
C 2.807211 1.664754 14.317290
C 2.751634 0.310325 11.091177
C 3.524719 3.019403 1.613057
C 3.580296 4.373832 3.468637
C 2.226761 4.006833 4.153903
C 2.171184 2.652404 0.927790
C 3.524719 3.019403 6.694750
C 3.580296 4.373832 8.550330
C 2.226761 4.006833 9.235597
C 2.171184 2.652404 6.009484
C 3.524719 3.019403 11.776443
C 3.580296 4.373832 13.632024
C 2.226761 4.006833 14.317290
C 2.171184 2.652404 11.091177
C 2.944269 5.361482 1.613057
C 2.999846 6.715911 3.468637
C 1.646311 6.348912 4.153903
C 1.590734 4.994483 0.927790
C 2.944269 5.361482 6.694750
C 2.999846 6.715911 8.550330
C 1.646311 6.348912 9.235597
C 1.590734 4.994483 6.009484
C 2.944269 5.361482 11.776443
C 2.999846 6.715911 13.632024
C 1.646311 6.348912 14.317290
C 1.590734 4.994483 11.091177
C 6.602779 0.677325 1.613057
C 6.658356 2.031753 3.468637
C 5.304821 1.664754 4.153903
C 5.249244 0.310325 0.927790
C 6.602779 0.677325 6.694750
C 6.658356 2.031753 8.550330
C 5.304821 1.664754 9.235597
C 5.249244 0.310325 6.009484
C 6.602779 0.677325 11.776443
C 6.658356 2.031753 13.632024
C 5.304821 1.664754 14.317290
C 5.249244 0.310325 11.091177
C 6.022329 3.019403 1.613057
C 6.077906 4.373832 3.468637
C 4.724371 4.006833 4.153903
C 4.668794 2.652404 0.927790
C 6.022329 3.019403 6.694750
C 6.077906 4.373832 8.550330
C 4.724371 4.006833 9.235597
C 4.668794 2.652404 6.009484
C 6.022329 3.019403 11.776443
C 6.077906 4.373832 13.632024
C 4.724371 4.006833 14.317290
C 4.668794 2.652404 11.091177
C 5.441879 5.361482 1.613057
C 5.497456 6.715911 3.468637
C 4.143921 6.348912 4.153903
C 4.088344 4.994483 0.927790
C 5.441879 5.361482 6.694750
C 5.497456 6.715911 8.550330
C 4.143921 6.348912 9.235597
C 4.088344 4.994483 6.009484
C 5.441879 5.361482 11.776443
C 5.497456 6.715911 13.632024
C 4.143921 6.348912 14.317290
C 4.088344 4.994483 11.091177
