108
A
C 1.696716 0.664860 1.549230
C 1.746047 1.994421 3.081212
C 0.400637 1.730841 3.864452
C 0.351307 0.401280 0.765991
C 1.696716 0.664860 6.179673
C 1.746047 1.994421 7.711655
C 0.400637 1.730841 8.494894
C 0.351307 0.401280 5.396434
C 1.696716 0.664860 10.810116
C 1.746047 1.994421 12.342097
C 0.400637 1.730841 13.125337
C 0.351307 0.401280 10.026876
C 1.289166 3.060560 1.549230
C 1.338497 4.390121 3.081212
C -0.006913 4.126541 3.864452
C -0.056243 2.796980 0.765991
C 1.289166 3.060560 6.179673
C 1.338497 4.390121 7.711655
C -0.006913 4.126541 8.494894
C -0.056243 2.796980 5.396434
C 1.289166 3.060560 10.810116
C 1.338497 4.390121 12.342097
C -0.006913 4.126541 13.125337
C -0.056243 2.796980 10.026876
C 0.881616 5.456261 1.549230
C 0.930947 6.785822 3.081212
C -0.414463 6.522242 3.864452
C -0.463793 5.192681 0.765991
C 0.881616 5.456261 6.179673
C 0.930947 6.785822 7.711655
C -0.414463 6.522242 8.494894
C -0.463793 5.192681 5.396434
C 0.881616 5.456261 10.810116
C 0.930947 6.785822 12.342097
C -0.414463 6.522242 13.125337
C -0.463793 5.192681 10.026876
C 4.201619 0.664860 1.549230
C 4.250950 1.994421 3.081212
C 2.905540 1.730841 3.864452
C 2.856210 0.401280 0.765991
C 4.201619 0.664860 6.179673
C 4.250950 1.994421 7.711655
C 2.905540 1.730841 8.494894
C 2.856210 0.401280 5.396434
C 4.201619 0.664860 10.810116
C 4.250950 1.994421 12.342097
C 2.905540 1.730841 13.125337
C 2.856210 0.401280 10.026876
C 3.794069 3.060560 1.549230
C 3.843400 4.390121 3.081212
C 2.497990 4.126541 3.864452
C 2.448660 2.796980 0.765991
C 3.794069 3.060560 6.179673
C 3.843400 4.390121 7.711655
C 2.497990 4.126541 8.494894
C 2.448660 2.796980 5.396434
C 3.794069 3.060560 10.810116
C 3.843400 4.390121 12.342097
C 2.497990 4.126541 13.125337
C 2.448660 2.796980 10.026876
C 3.386519 5.456261 1.549230
C 3.435850 6.785822 3.081212
C 2.090440 6.522242 3.864452
C 2.041110 5.192681 0.765991
C 3.386519 5.456261 6.179673
C 3.435850 6.785822 7.711655
C 2.090440 6.522242 8.494894
C 2.041110 5.192681 5.396434
C 3.386519 5.456261 10.810116
C 3.435850 6.785822 12.342097
C 2.090440 6.522242 13.125337
C 2.041110 5.192681 10.026876
C 6.706522 0.664860 1.549230
C 6.755853 1.994421 3.081212
C 5.410444 1.730841 3.864452
C 5.361113 0.401280 0.765991
C 6.706522 0.664860 6.179673
C 6.755853 1.994421 7.711655
C 5.410444 1.730841 8.494894
C 5.361113 0.401280 5.396434
C 6.706522 0.664860 10.810116
C 6.755853 1.994421 12.342097
C 5.410444 1.730841 13.125337
C 5.361113 0.401280 10.026876
C 6.298972 3.060560 1.549230
C 6.348303 4.390121 3.081212
C 5.002894 4.126541 3.864452
C 4.953563 2.796980 0.765991
C 6.298972 3.060560 6.179673
C 6.348303 4.390121 7.711655
C 5.002894 4.126541 8.494894
C 4.953563 2.796980 5.396434
C 6.298972 3.060560 10.810116
C 6.348303 4.390121 12.342097
C 5.002894 4.126541 13.125337
C 4.953563 2.796980 10.026876
C 5.891422 5.456261 1.549230
C 5.940753 6.785822 3.081212
C 4.595344 6.522242 3.864452
C 4.546013 5.192681 0.765991
C 5.891422 5.456261 6.179673
C 5.940753 6.785822 7.711655
C 4.595344 6.522242 8.494894
C 4.546013 5.192681 5.396434
C 5.891422 5.456261 10.810116
C 5.940753 6.785822 12.342097
C 4.595344 6.522242 13.125337
C 4.546013 5.192681 10.026876
