108
A
C 0.015687 0.740293 4.159283
C 1.309066 1.517803 4.073628
C -0.814703 1.702999 1.539896
C 1.770340 0.333308 1.470110
C 0.015687 0.740293 9.278376
C 1.309066 1.517803 9.192721
C -0.814703 1.702999 6.658989
C 1.770340 0.333308 6.589203
C 0.015687 0.740293 14.397469
C 1.309066 1.517803 14.311814
C -0.814703 1.702999 11.778082
C 1.770340 0.333308 11.708296
C -1.275977 2.887495 4.159283
C 0.017402 3.665005 4.073628
C -2.106366 3.850201 1.539896
C 0.478676 2.480510 1.470110
C -1.275977 2.887495 9.278376
C 0.017402 3.665005 9.192721
C -2.106366 3.850201 6.658989
C 0.478676 2.480510 6.589203
C -1.275977 2.887495 14.397469
C 0.017402 3.665005 14.311814
C -2.106366 3.850201 11.778082
C 0.478676 2.480510 11.708296
C -2.567640 5.034696 4.159283
C -1.274261 5.812206 4.073628
C -3.398029 5.997403 1.539896
C -0.812987 4.627711 1.470110
C -2.567640 5.034696 9.278376
C -1.274261 5.812206 9.192721
C -3.398029 5.997403 6.658989
C -0.812987 4.627711 6.589203
C -2.567640 5.034696 14.397469
C -1.274261 5.812206 14.311814
C -3.398029 5.997403 11.778082
C -0.812987 4.627711 11.708296
C 2.447544 0.740293 4.661648
C 3.740923 1.517803 4.575993
C 1.617155 1.702999 2.042261
C 4.202197 0.333308 1.972476
C 2.447544 0.740293 9.780741
C 3.740923 1.517803 9.695086
C 1.617155 1.702999 7.161354
C 4.202197 0.333308 7.091569
C 2.447544 0.740293 14.899834
C 3.740923 1.517803 14.814179
C 1.617155 1.702999 12.280447
C 4.202197 0.333308 12.210661
C 1.155881 2.887495 4.661648
C 2.449260 3.665005 4.575993
C 0.325492 3.850201 2.042261
C 2.910534 2.480510 1.972476
C 1.155881 2.887495 9.780741
C 2.449260 3.665005 9.695086
C 0.325492 3.850201 7.161354
C 2.910534 2.480510 7.091569
C 1.155881 2.887495 14.899834
C 2.449260 3.665005 14.814179
C 0.325492 3.850201 12.280447
C 2.910534 2.480510 12.210661
C -0.135782 5.034696 4.661648
C 1.157597 5.812206 4.575993
C -0.966172 5.997403 2.042261
C 1.618871 4.627711 1.972476
C -0.135782 5.034696 9.780741
C 1.157597 5.812206 9.695086
C -0.966172 5.997403 7.161354
C 1.618871 4.627711 7.091569
C -0.135782 5.034696 14.899834
C 1.157597 5.812206 14.814179
C -0.966172 5.997403 12.280447
C 1.618871 4.627711 12.210661
C 4.879402 0.740293 5.164014
C 6.172781 1.517803 5.078359
C 4.049013 1.702999 2.544627
C 6.634055 0.333308 2.474841
C 4.879402 0.740293 10.283107
C 6.172781 1.517803 10.197452
C 4.049013 1.702999 7.663720
C 6.634055 0.333308 7.593934
C 4.879402 0.740293 15.402200
C 6.172781 1.517803 15.316545
C 4.049013 1.702999 12.782813
C 6.634055 0.333308 12.713027
C 3.587739 2.887495 5.164014
C 4.881118 3.665005 5.078359
C 2.757350 3.850201 2.544627
C 5.342392 2.480510 2.474841
C 3.587739 2.887495 10.283107
C 4.881118 3.665005 10.197452
C 2.757350 3.850201 7.663720
C 5.342392 2.480510 7.593934
C 3.587739 2.887495 15.402200
C 4.881118 3.665005 15.316545
C 2.757350 3.850201 12.782813
C 5.342392 2.480510 12.713027
C 2.296075 5.034696 5.164014
C 3.589454 5.812206 5.078359
C 1.465686 5.997403 2.544627
C 4.050729 4.627711 2.474841
C 2.296075 5.034696 10.283107
C 3.589454 5.812206 10.197452
C 1.465686 5.997403 7.663720
C 4.050729 4.627711 7.593934
C 2.296075 5.034696 15.402200
C 3.589454 5.812206 15.316545
C 1.465686 5.997403 12.782813
C 4.050729 4.627711 12.713027
