108
A
C 1.857741 0.637284 1.382428
C 1.870325 1.911822 2.377746
C 0.587128 1.861830 3.262514
C 0.574544 0.587292 0.497659
C 1.857741 0.637284 5.142601
C 1.870325 1.911822 6.137919
C 0.587128 1.861830 7.022687
C 0.574544 0.587292 4.257832
C 1.857741 0.637284 8.902774
C 1.870325 1.911822 9.898092
C 0.587128 1.861830 10.782861
C 0.574544 0.587292 8.018005
C 1.783641 3.136398 1.382428
C 1.796225 4.410936 2.377746
C 0.513028 4.360943 3.262514
C 0.500444 3.086405 0.497659
C 1.783641 3.136398 5.142601
C 1.796225 4.410936 6.137919
C 0.513028 4.360943 7.022687
C 0.500444 3.086405 4.257832
C 1.783641 3.136398 8.902774
C 1.796225 4.410936 9.898092
C 0.513028 4.360943 10.782861
C 0.500444 3.086405 8.018005
C 1.709541 5.635511 1.382428
C 1.722125 6.910049 2.377746
C 0.438928 6.860057 3.262514
C 0.426344 5.585519 0.497659
C 1.709541 5.635511 5.142601
C 1.722125 6.910049 6.137919
C 0.438928 6.860057 7.022687
C 0.426344 5.585519 4.257832
C 1.709541 5.635511 8.902774
C 1.722125 6.910049 9.898092
C 0.438928 6.860057 10.782861
C 0.426344 5.585519 8.018005
C 4.376710 0.637284 1.382428
C 4.389293 1.911822 2.377746
C 3.106096 1.861830 3.262514
C 3.093513 0.587292 0.497659
C 4.376710 0.637284 5.142601
C 4.389293 1.911822 6.137919
C 3.106096 1.861830 7.022687
C 3.093513 0.587292 4.257832
C 4.376710 0.637284 8.902774
C 4.389293 1.911822 9.898092
C 3.106096 1.861830 10.782861
C 3.093513 0.587292 8.018005
C 4.302610 3.136398 1.382428
C 4.315193 4.410936 2.377746
C 3.031996 4.360943 3.262514
C 3.019413 3.086405 0.497659
C 4.302610 3.136398 5.142601
C 4.315193 4.410936 6.137919
C 3.031996 4.360943 7.022687
C 3.019413 3.086405 4.257832
C 4.302610 3.136398 8.902774
C 4.315193 4.410936 9.898092
C 3.031996 4.360943 10.782861
C 3.019413 3.086405 8.018005
C 4.228510 5.635511 1.382428
C 4.241093 6.910049 2.377746
C 2.957896 6.860057 3.262514
C 2.945313 5.585519 0.497659
C 4.228510 5.635511 5.142601
C 4.241093 6.910049 6.137919
C 2.957896 6.860057 7.022687
C 2.945313 5.585519 4.257832
C 4.228510 5.635511 8.902774
C 4.241093 6.910049 9.898092
C 2.957896 6.860057 10.782861
C 2.945313 5.585519 8.018005
C 6.895678 0.637284 1.382428
C 6.908262 1.911822 2.377746
C 5.625065 1.861830 3.262514
C 5.612481 0.587292 0.497659
C 6.895678 0.637284 5.142601
C 6.908262 1.911822 6.137919
C 5.625065 1.861830 7.022687
C 5.612481 0.587292 4.257832
C 6.895678 0.637284 8.902774
C 6.908262 1.911822 9.898092
C 5.625065 1.861830 10.782861
C 5.612481 0.587292 8.018005
C 6.821578 3.136398 1.382428
C 6.834162 4.410936 2.377746
C 5.550965 4.360943 3.262514
C 5.538381 3.086405 0.497659
C 6.821578 3.136398 5.142601
C 6.834162 4.410936 6.137919
C 5.550965 4.360943 7.022687
C 5.538381 3.086405 4.257832
C 6.821578 3.136398 8.902774
C 6.834162 4.410936 9.898092
C 5.550965 4.360943 10.782861
C 5.538381 3.086405 8.018005
C 6.747478 5.635511 1.382428
C 6.760062 6.910049 2.377746
C 5.476865 6.860057 3.262514
C 5.464281 5.585519 0.497659
C 6.747478 5.635511 5.142601
C 6.760062 6.910049 6.137919
C 5.476865 6.860057 7.022687
C 5.464281 5.585519 4.257832
C 6.747478 5.635511 8.902774
C 6.760062 6.910049 9.898092
C 5.476865 6.860057 10.782861
C 5.464281 5.585519 8.018005
