108
A
C 0.098666 0.784137 4.463802
C 1.375910 1.542950 4.358713
C -0.845855 1.674322 1.587165
C 1.706628 0.288287 1.510653
C 0.098666 0.784137 10.067216
C 1.375910 1.542950 9.962126
C -0.845855 1.674322 7.190579
C 1.706628 0.288287 7.114066
C 0.098666 0.784137 15.670630
C 1.375910 1.542950 15.565540
C -0.845855 1.674322 12.793992
C 1.706628 0.288287 12.717480
C -1.176573 2.928986 4.463802
C 0.100671 3.687799 4.358713
C -2.121094 3.819171 1.587165
C 0.431388 2.433135 1.510653
C -1.176573 2.928986 10.067216
C 0.100671 3.687799 9.962126
C -2.121094 3.819171 7.190579
C 0.431388 2.433135 7.114066
C -1.176573 2.928986 15.670630
C 0.100671 3.687799 15.565540
C -2.121094 3.819171 12.793992
C 0.431388 2.433135 12.717480
C -2.451812 5.073834 4.463802
C -1.174569 5.832647 4.358713
C -3.396334 5.964019 1.587165
C -0.843851 4.577984 1.510653
C -2.451812 5.073834 10.067216
C -1.174569 5.832647 9.962126
C -3.396334 5.964019 7.190579
C -0.843851 4.577984 7.114066
C -2.451812 5.073834 15.670630
C -1.174569 5.832647 15.565540
C -3.396334 5.964019 12.793992
C -0.843851 4.577984 12.717480
C 2.541580 0.784137 4.820554
C 3.818823 1.542950 4.715465
C 1.597058 1.674322 1.943917
C 4.149541 0.288287 1.867405
C 2.541580 0.784137 10.423968
C 3.818823 1.542950 10.318879
C 1.597058 1.674322 7.547331
C 4.149541 0.288287 7.470819
C 2.541580 0.784137 16.027382
C 3.818823 1.542950 15.922293
C 1.597058 1.674322 13.150745
C 4.149541 0.288287 13.074233
C 1.266341 2.928986 4.820554
C 2.543584 3.687799 4.715465
C 0.321819 3.819171 1.943917
C 2.874302 2.433135 1.867405
C 1.266341 2.928986 10.423968
C 2.543584 3.687799 10.318879
C 0.321819 3.819171 7.547331
C 2.874302 2.433135 7.470819
C 1.266341 2.928986 16.027382
C 2.543584 3.687799 15.922293
C 0.321819 3.819171 13.150745
C 2.874302 2.433135 13.074233
C -0.008899 5.073834 4.820554
C 1.268345 5.832647 4.715465
C -0.953420 5.964019 1.943917
C 1.599063 4.577984 1.867405
C -0.008899 5.073834 10.423968
C 1.268345 5.832647 10.318879
C -0.953420 5.964019 7.547331
C 1.599063 4.577984 7.470819
C -0.008899 5.073834 16.027382
C 1.268345 5.832647 15.922293
C -0.953420 5.964019 13.150745
C 1.599063 4.577984 13.074233
C 4.984493 0.784137 5.177307
C 6.261737 1.542950 5.072217
C 4.039972 1.674322 2.300669
C 6.592455 0.288287 2.224157
C 4.984493 0.784137 10.780721
C 6.261737 1.542950 10.675631
C 4.039972 1.674322 7.904083
C 6.592455 0.288287 7.827571
C 4.984493 0.784137 16.384134
C 6.261737 1.542950 16.279045
C 4.039972 1.674322 13.507497
C 6.592455 0.288287 13.430985
C 3.709254 2.928986 5.177307
C 4.986498 3.687799 5.072217
C 2.764733 3.819171 2.300669
C 5.317216 2.433135 2.224157
C 3.709254 2.928986 10.780721
C 4.986498 3.687799 10.675631
C 2.764733 3.819171 7.904083
C 5.317216 2.433135 7.827571
C 3.709254 2.928986 16.384134
C 4.986498 3.687799 16.279045
C 2.764733 3.819171 13.507497
C 5.317216 2.433135 13.430985
C 2.434015 5.073834 5.177307
C 3.711259 5.832647 5.072217
C 1.489494 5.964019 2.300669
C 4.041976 4.577984 2.224157
C 2.434015 5.073834 10.780721
C 3.711259 5.832647 10.675631
C 1.489494 5.964019 7.904083
C 4.041976 4.577984 7.827571
C 2.434015 5.073834 16.384134
C 3.711259 5.832647 16.279045
C 1.489494 5.964019 13.507497
C 4.041976 4.577984 13.430985
