108
A
C 1.885982 0.631666 1.345221
C 1.888191 1.894994 2.253791
C 0.623242 1.886598 3.144727
C 0.621033 0.623270 0.454285
C 1.885982 0.631666 4.944233
C 1.888191 1.894994 5.852804
C 0.623242 1.886598 6.743739
C 0.621033 0.623270 4.053298
C 1.885982 0.631666 8.543245
C 1.888191 1.894994 9.451816
C 0.623242 1.886598 10.342751
C 0.621033 0.623270 7.652310
C 1.873632 3.149930 1.345221
C 1.875841 4.413258 2.253791
C 0.610892 4.404862 3.144727
C 0.608683 3.141535 0.454285
C 1.873632 3.149930 4.944233
C 1.875841 4.413258 5.852804
C 0.610892 4.404862 6.743739
C 0.608683 3.141535 4.053298
C 1.873632 3.149930 8.543245
C 1.875841 4.413258 9.451816
C 0.610892 4.404862 10.342751
C 0.608683 3.141535 7.652310
C 1.861282 5.668195 1.345221
C 1.863491 6.931522 2.253791
C 0.598542 6.923126 3.144727
C 0.596333 5.659799 0.454285
C 1.861282 5.668195 4.944233
C 1.863491 6.931522 5.852804
C 0.598542 6.923126 6.743739
C 0.596333 5.659799 4.053298
C 1.861282 5.668195 8.543245
C 1.863491 6.931522 9.451816
C 0.598542 6.923126 10.342751
C 0.596333 5.659799 7.652310
C 4.407555 0.631666 1.345221
C 4.409764 1.894994 2.253791
C 3.144815 1.886598 3.144727
C 3.142606 0.623270 0.454285
C 4.407555 0.631666 4.944233
C 4.409764 1.894994 5.852804
C 3.144815 1.886598 6.743739
C 3.142606 0.623270 4.053298
C 4.407555 0.631666 8.543245
C 4.409764 1.894994 9.451816
C 3.144815 1.886598 10.342751
C 3.142606 0.623270 7.652310
C 4.395205 3.149930 1.345221
C 4.397414 4.413258 2.253791
C 3.132465 4.404862 3.144727
C 3.130256 3.141535 0.454285
C 4.395205 3.149930 4.944233
C 4.397414 4.413258 5.852804
C 3.132465 4.404862 6.743739
C 3.130256 3.141535 4.053298
C 4.395205 3.149930 8.543245
C 4.397414 4.413258 9.451816
C 3.132465 4.404862 10.342751
C 3.130256 3.141535 7.652310
C 4.382855 5.668195 1.345221
C 4.385064 6.931522 2.253791
C 3.120115 6.923126 3.144727
C 3.117906 5.659799 0.454285
C 4.382855 5.668195 4.944233
C 4.385064 6.931522 5.852804
C 3.120115 6.923126 6.743739
C 3.117906 5.659799 4.053298
C 4.382855 5.668195 8.543245
C 4.385064 6.931522 9.451816
C 3.120115 6.923126 10.342751
C 3.117906 5.659799 7.652310
C 6.929129 0.631666 1.345221
C 6.931337 1.894994 2.253791
C 5.666388 1.886598 3.144727
C 5.664180 0.623270 0.454285
C 6.929129 0.631666 4.944233
C 6.931337 1.894994 5.852804
C 5.666388 1.886598 6.743739
C 5.664180 0.623270 4.053298
C 6.929129 0.631666 8.543245
C 6.931337 1.894994 9.451816
C 5.666388 1.886598 10.342751
C 5.664180 0.623270 7.652310
C 6.916779 3.149930 1.345221
C 6.918987 4.413258 2.253791
C 5.654038 4.404862 3.144727
C 5.651830 3.141535 0.454285
C 6.916779 3.149930 4.944233
C 6.918987 4.413258 5.852804
C 5.654038 4.404862 6.743739
C 5.651830 3.141535 4.053298
C 6.916779 3.149930 8.543245
C 6.918987 4.413258 9.451816
C 5.654038 4.404862 10.342751
C 5.651830 3.141535 7.652310
C 6.904429 5.668195 1.345221
C 6.906637 6.931522 2.253791
C 5.641688 6.923126 3.144727
C 5.639480 5.659799 0.454285
C 6.904429 5.668195 4.944233
C 6.906637 6.931522 5.852804
C 5.641688 6.923126 6.743739
C 5.639480 5.659799 4.053298
C 6.904429 5.668195 8.543245
C 6.906637 6.931522 9.451816
C 5.641688 6.923126 10.342751
C 5.639480 5.659799 7.652310
