108
A
C -0.085781 0.685350 3.745226
C 1.226865 1.486287 3.723379
C -0.777117 1.738928 1.473340
C 1.847722 0.389722 1.454201
C -0.085781 0.685350 8.258918
C 1.226865 1.486287 8.237071
C -0.777117 1.738928 5.987032
C 1.847722 0.389722 5.967893
C -0.085781 0.685350 12.772610
C 1.226865 1.486287 12.750763
C -0.777117 1.738928 10.500724
C 1.847722 0.389722 10.481585
C -1.397975 2.835493 3.745226
C -0.085329 3.636430 3.723379
C -2.089311 3.889072 1.473340
C 0.535529 2.539865 1.454201
C -1.397975 2.835493 8.258918
C -0.085329 3.636430 8.237071
C -2.089311 3.889072 5.987032
C 0.535529 2.539865 5.967893
C -1.397975 2.835493 12.772610
C -0.085329 3.636430 12.750763
C -2.089311 3.889072 10.500724
C 0.535529 2.539865 10.481585
C -2.710168 4.985636 3.745226
C -1.397522 5.786573 3.723379
C -3.401504 6.039215 1.473340
C -0.776665 4.690009 1.454201
C -2.710168 4.985636 8.258918
C -1.397522 5.786573 8.237071
C -3.401504 6.039215 5.987032
C -0.776665 4.690009 5.967893
C -2.710168 4.985636 12.772610
C -1.397522 5.786573 12.750763
C -3.401504 6.039215 10.500724
C -0.776665 4.690009 10.481585
C 2.332257 0.685350 4.429608
C 3.644903 1.486287 4.407761
C 1.640921 1.738928 2.157722
C 4.265761 0.389722 2.138583
C 2.332257 0.685350 8.943300
C 3.644903 1.486287 8.921453
C 1.640921 1.738928 6.671414
C 4.265761 0.389722 6.652275
C 2.332257 0.685350 13.456992
C 3.644903 1.486287 13.435145
C 1.640921 1.738928 11.185106
C 4.265761 0.389722 11.165967
C 1.020064 2.835493 4.429608
C 2.332710 3.636430 4.407761
C 0.328728 3.889072 2.157722
C 2.953567 2.539865 2.138583
C 1.020064 2.835493 8.943300
C 2.332710 3.636430 8.921453
C 0.328728 3.889072 6.671414
C 2.953567 2.539865 6.652275
C 1.020064 2.835493 13.456992
C 2.332710 3.636430 13.435145
C 0.328728 3.889072 11.185106
C 2.953567 2.539865 11.165967
C -0.292130 4.985636 4.429608
C 1.020516 5.786573 4.407761
C -0.983466 6.039215 2.157722
C 1.641374 4.690009 2.138583
C -0.292130 4.985636 8.943300
C 1.020516 5.786573 8.921453
C -0.983466 6.039215 6.671414
C 1.641374 4.690009 6.652275
C -0.292130 4.985636 13.456992
C 1.020516 5.786573 13.435145
C -0.983466 6.039215 11.185106
C 1.641374 4.690009 11.165967
C 4.750295 0.685350 5.113990
C 6.062941 1.486287 5.092143
C 4.058959 1.738928 2.842104
C 6.683799 0.389722 2.822965
C 4.750295 0.685350 9.627682
C 6.062941 1.486287 9.605835
C 4.058959 1.738928 7.355796
C 6.683799 0.389722 7.336657
C 4.750295 0.685350 14.141374
C 6.062941 1.486287 14.119527
C 4.058959 1.738928 11.869488
C 6.683799 0.389722 11.850349
C 3.438102 2.835493 5.113990
C 4.750748 3.636430 5.092143
C 2.746766 3.889072 2.842104
C 5.371605 2.539865 2.822965
C 3.438102 2.835493 9.627682
C 4.750748 3.636430 9.605835
C 2.746766 3.889072 7.355796
C 5.371605 2.539865 7.336657
C 3.438102 2.835493 14.141374
C 4.750748 3.636430 14.119527
C 2.746766 3.889072 11.869488
C 5.371605 2.539865 11.850349
C 2.125908 4.985636 5.113990
C 3.438554 5.786573 5.092143
C 1.434572 6.039215 2.842104
C 4.059412 4.690009 2.822965
C 2.125908 4.985636 9.627682
C 3.438554 5.786573 9.605835
C 1.434572 6.039215 7.355796
C 4.059412 4.690009 7.336657
C 2.125908 4.985636 14.141374
C 3.438554 5.786573 14.119527
C 1.434572 6.039215 11.869488
C 4.059412 4.690009 11.850349
