108
A
C 1.521307 0.687778 1.658465
C 1.574854 2.063059 3.842247
C 0.228531 1.604509 4.408821
C 0.174984 0.229229 1.091891
C 1.521307 0.687778 7.159177
C 1.574854 2.063059 9.342959
C 0.228531 1.604509 9.909533
C 0.174984 0.229229 6.592603
C 1.521307 0.687778 12.659889
C 1.574854 2.063059 14.843671
C 0.228531 1.604509 15.410245
C 0.174984 0.229229 12.093315
C 0.780307 2.980065 1.658465
C 0.833854 4.355346 3.842247
C -0.512469 3.896797 4.408821
C -0.566016 2.521516 1.091891
C 0.780307 2.980065 7.159177
C 0.833854 4.355346 9.342959
C -0.512469 3.896797 9.909533
C -0.566016 2.521516 6.592603
C 0.780307 2.980065 12.659889
C 0.833854 4.355346 14.843671
C -0.512469 3.896797 15.410245
C -0.566016 2.521516 12.093315
C 0.039307 5.272353 1.658465
C 0.092854 6.647633 3.842247
C -1.253469 6.189084 4.408821
C -1.307016 4.813803 1.091891
C 0.039307 5.272353 7.159177
C 0.092854 6.647633 9.342959
C -1.253469 6.189084 9.909533
C -1.307016 4.813803 6.592603
C 0.039307 5.272353 12.659889
C 0.092854 6.647633 14.843671
C -1.253469 6.189084 15.410245
C -1.307016 4.813803 12.093315
C 4.012144 0.687778 1.658465
C 4.065692 2.063059 3.842247
C 2.719369 1.604509 4.408821
C 2.665822 0.229229 1.091891
C 4.012144 0.687778 7.159177
C 4.065692 2.063059 9.342959
C 2.719369 1.604509 9.909533
C 2.665822 0.229229 6.592603
C 4.012144 0.687778 12.659889
C 4.065692 2.063059 14.843671
C 2.719369 1.604509 15.410245
C 2.665822 0.229229 12.093315
C 3.271144 2.980065 1.658465
C 3.324692 4.355346 3.842247
C 1.978369 3.896797 4.408821
C 1.924822 2.521516 1.091891
C 3.271144 2.980065 7.159177
C 3.324692 4.355346 9.342959
C 1.978369 3.896797 9.909533
C 1.924822 2.521516 6.592603
C 3.271144 2.980065 12.659889
C 3.324692 4.355346 14.843671
C 1.978369 3.896797 15.410245
C 1.924822 2.521516 12.093315
C 2.530144 5.272353 1.658465
C 2.583692 6.647633 3.842247
C 1.237369 6.189084 4.408821
C 1.183822 4.813803 1.091891
C 2.530144 5.272353 7.159177
C 2.583692 6.647633 9.342959
C 1.237369 6.189084 9.909533
C 1.183822 4.813803 6.592603
C 2.530144 5.272353 12.659889
C 2.583692 6.647633 14.843671
C 1.237369 6.189084 15.410245
C 1.183822 4.813803 12.093315
C 6.502982 0.687778 1.658465
C 6.556529 2.063059 3.842247
C 5.210207 1.604509 4.408821
C 5.156659 0.229229 1.091891
C 6.502982 0.687778 7.159177
C 6.556529 2.063059 9.342959
C 5.210207 1.604509 9.909533
C 5.156659 0.229229 6.592603
C 6.502982 0.687778 12.659889
C 6.556529 2.063059 14.843671
C 5.210207 1.604509 15.410245
C 5.156659 0.229229 12.093315
C 5.761982 2.980065 1.658465
C 5.815529 4.355346 3.842247
C 4.469207 3.896797 4.408821
C 4.415659 2.521516 1.091891
C 5.761982 2.980065 7.159177
C 5.815529 4.355346 9.342959
C 4.469207 3.896797 9.909533
C 4.415659 2.521516 6.592603
C 5.761982 2.980065 12.659889
C 5.815529 4.355346 14.843671
C 4.469207 3.896797 15.410245
C 4.415659 2.521516 12.093315
C 5.020982 5.272353 1.658465
C 5.074529 6.647633 3.842247
C 3.728207 6.189084 4.408821
C 3.674659 4.813803 1.091891
C 5.020982 5.272353 7.159177
C 5.074529 6.647633 9.342959
C 3.728207 6.189084 9.909533
C 3.674659 4.813803 6.592603
C 5.020982 5.272353 12.659889
C 5.074529 6.647633 14.843671
C 3.728207 6.189084 15.410245
C 3.674659 4.813803 12.093315
