108
A
C -0.033331 0.713939 3.965168
C 1.269421 1.502687 3.904662
C -0.796474 1.720234 1.508985
C 1.807796 0.360368 1.457653
C -0.033331 0.713939 8.793669
C 1.269421 1.502687 8.733162
C -0.796474 1.720234 6.337485
C 1.807796 0.360368 6.286153
C -0.033331 0.713939 13.622169
C 1.269421 1.502687 13.561663
C -0.796474 1.720234 11.165986
C 1.807796 0.360368 11.114653
C -1.334849 2.862553 3.965168
C -0.032096 3.651300 3.904662
C -2.097992 3.868847 1.508985
C 0.506279 2.508981 1.457653
C -1.334849 2.862553 8.793669
C -0.032096 3.651300 8.733162
C -2.097992 3.868847 6.337485
C 0.506279 2.508981 6.286153
C -1.334849 2.862553 13.622169
C -0.032096 3.651300 13.561663
C -2.097992 3.868847 11.165986
C 0.506279 2.508981 11.114653
C -2.636367 5.011166 3.965168
C -1.333614 5.799914 3.904662
C -3.399509 6.017461 1.508985
C -0.795239 4.657595 1.457653
C -2.636367 5.011166 8.793669
C -1.333614 5.799914 8.733162
C -3.399509 6.017461 6.337485
C -0.795239 4.657595 6.286153
C -2.636367 5.011166 13.622169
C -1.333614 5.799914 13.561663
C -3.399509 6.017461 11.165986
C -0.795239 4.657595 11.114653
C 2.391893 0.713939 4.554902
C 3.694646 1.502687 4.494395
C 1.628751 1.720234 2.098718
C 4.233021 0.360368 2.047386
C 2.391893 0.713939 9.383402
C 3.694646 1.502687 9.322896
C 1.628751 1.720234 6.927219
C 4.233021 0.360368 6.875886
C 2.391893 0.713939 14.211902
C 3.694646 1.502687 14.151396
C 1.628751 1.720234 11.755719
C 4.233021 0.360368 11.704387
C 1.090376 2.862553 4.554902
C 2.393128 3.651300 4.494395
C 0.327233 3.868847 2.098718
C 2.931503 2.508981 2.047386
C 1.090376 2.862553 9.383402
C 2.393128 3.651300 9.322896
C 0.327233 3.868847 6.927219
C 2.931503 2.508981 6.875886
C 1.090376 2.862553 14.211902
C 2.393128 3.651300 14.151396
C 0.327233 3.868847 11.755719
C 2.931503 2.508981 11.704387
C -0.211142 5.011166 4.554902
C 1.091610 5.799914 4.494395
C -0.974285 6.017461 2.098718
C 1.629985 4.657595 2.047386
C -0.211142 5.011166 9.383402
C 1.091610 5.799914 9.322896
C -0.974285 6.017461 6.927219
C 1.629985 4.657595 6.875886
C -0.211142 5.011166 14.211902
C 1.091610 5.799914 14.151396
C -0.974285 6.017461 11.755719
C 1.629985 4.657595 11.704387
C 4.817118 0.713939 5.144635
C 6.119870 1.502687 5.084129
C 4.053975 1.720234 2.688452
C 6.658245 0.360368 2.637119
C 4.817118 0.713939 9.973135
C 6.119870 1.502687 9.912629
C 4.053975 1.720234 7.516952
C 6.658245 0.360368 7.465620
C 4.817118 0.713939 14.801636
C 6.119870 1.502687 14.741129
C 4.053975 1.720234 12.345452
C 6.658245 0.360368 12.294120
C 3.515600 2.862553 5.144635
C 4.818352 3.651300 5.084129
C 2.752457 3.868847 2.688452
C 5.356727 2.508981 2.637119
C 3.515600 2.862553 9.973135
C 4.818352 3.651300 9.912629
C 2.752457 3.868847 7.516952
C 5.356727 2.508981 7.465620
C 3.515600 2.862553 14.801636
C 4.818352 3.651300 14.741129
C 2.752457 3.868847 12.345452
C 5.356727 2.508981 12.294120
C 2.214082 5.011166 5.144635
C 3.516834 5.799914 5.084129
C 1.450939 6.017461 2.688452
C 4.055209 4.657595 2.637119
C 2.214082 5.011166 9.973135
C 3.516834 5.799914 9.912629
C 1.450939 6.017461 7.516952
C 4.055209 4.657595 7.465620
C 2.214082 5.011166 14.801636
C 3.516834 5.799914 14.741129
C 1.450939 6.017461 12.345452
C 4.055209 4.657595 12.294120
