108
A
C 1.466571 0.693674 1.679775
C 1.515121 2.080715 4.078795
C 0.180299 1.567972 4.559060
C 0.131750 0.180932 1.199510
C 1.466571 0.693674 7.438344
C 1.515121 2.080715 9.837364
C 0.180299 1.567972 10.317629
C 0.131750 0.180932 6.958080
C 1.466571 0.693674 13.196914
C 1.515121 2.080715 15.595934
C 0.180299 1.567972 16.076199
C 0.131750 0.180932 12.716649
C 0.626771 2.955321 1.679775
C 0.675321 4.342361 4.078795
C -0.659501 3.829619 4.559060
C -0.708050 2.442578 1.199510
C 0.626771 2.955321 7.438344
C 0.675321 4.342361 9.837364
C -0.659501 3.829619 10.317629
C -0.708050 2.442578 6.958080
C 0.626771 2.955321 13.196914
C 0.675321 4.342361 15.595934
C -0.659501 3.829619 16.076199
C -0.708050 2.442578 12.716649
C -0.213029 5.216967 1.679775
C -0.164479 6.604008 4.078795
C -1.499301 6.091265 4.559060
C -1.547850 4.704225 1.199510
C -0.213029 5.216967 7.438344
C -0.164479 6.604008 9.837364
C -1.499301 6.091265 10.317629
C -1.547850 4.704225 6.958080
C -0.213029 5.216967 13.196914
C -0.164479 6.604008 15.595934
C -1.499301 6.091265 16.076199
C -1.547850 4.704225 12.716649
C 3.953241 0.693674 1.679775
C 4.001791 2.080715 4.078795
C 2.666969 1.567972 4.559060
C 2.618420 0.180932 1.199510
C 3.953241 0.693674 7.438344
C 4.001791 2.080715 9.837364
C 2.666969 1.567972 10.317629
C 2.618420 0.180932 6.958080
C 3.953241 0.693674 13.196914
C 4.001791 2.080715 15.595934
C 2.666969 1.567972 16.076199
C 2.618420 0.180932 12.716649
C 3.113441 2.955321 1.679775
C 3.161991 4.342361 4.078795
C 1.827169 3.829619 4.559060
C 1.778620 2.442578 1.199510
C 3.113441 2.955321 7.438344
C 3.161991 4.342361 9.837364
C 1.827169 3.829619 10.317629
C 1.778620 2.442578 6.958080
C 3.113441 2.955321 13.196914
C 3.161991 4.342361 15.595934
C 1.827169 3.829619 16.076199
C 1.778620 2.442578 12.716649
C 2.273641 5.216967 1.679775
C 2.322191 6.604008 4.078795
C 0.987369 6.091265 4.559060
C 0.938820 4.704225 1.199510
C 2.273641 5.216967 7.438344
C 2.322191 6.604008 9.837364
C 0.987369 6.091265 10.317629
C 0.938820 4.704225 6.958080
C 2.273641 5.216967 13.196914
C 2.322191 6.604008 15.595934
C 0.987369 6.091265 16.076199
C 0.938820 4.704225 12.716649
C 6.439911 0.693674 1.679775
C 6.488461 2.080715 4.078795
C 5.153640 1.567972 4.559060
C 5.105090 0.180932 1.199510
C 6.439911 0.693674 7.438344
C 6.488461 2.080715 9.837364
C 5.153640 1.567972 10.317629
C 5.105090 0.180932 6.958080
C 6.439911 0.693674 13.196914
C 6.488461 2.080715 15.595934
C 5.153640 1.567972 16.076199
C 5.105090 0.180932 12.716649
C 5.600111 2.955321 1.679775
C 5.648661 4.342361 4.078795
C 4.313840 3.829619 4.559060
C 4.265290 2.442578 1.199510
C 5.600111 2.955321 7.438344
C 5.648661 4.342361 9.837364
C 4.313840 3.829619 10.317629
C 4.265290 2.442578 6.958080
C 5.600111 2.955321 13.196914
C 5.648661 4.342361 15.595934
C 4.313840 3.829619 16.076199
C 4.265290 2.442578 12.716649
C 4.760311 5.216967 1.679775
C 4.808861 6.604008 4.078795
C 3.474040 6.091265 4.559060
C 3.425490 4.704225 1.199510
C 4.760311 5.216967 7.438344
C 4.808861 6.604008 9.837364
C 3.474040 6.091265 10.317629
C 3.425490 4.704225 6.958080
C 4.760311 5.216967 13.196914
C 4.808861 6.604008 15.595934
C 3.474040 6.091265 16.076199
C 3.425490 4.704225 12.716649
