108
A
C 1.770059 0.653179 1.482203
C 1.807073 1.959434 2.761453
C 0.481746 1.788483 3.604031
C 0.444731 0.482228 0.639625
C 1.770059 0.653179 5.725859
C 1.807073 1.959434 7.005109
C 0.481746 1.788483 7.847687
C 0.444731 0.482228 4.883281
C 1.770059 0.653179 9.969515
C 1.807073 1.959434 11.248766
C 0.481746 1.788483 12.091344
C 0.444731 0.482228 9.126937
C 1.510709 3.094841 1.482203
C 1.547723 4.401096 2.761453
C 0.222396 4.230145 3.604031
C 0.185381 2.923890 0.639625
C 1.510709 3.094841 5.725859
C 1.547723 4.401096 7.005109
C 0.222396 4.230145 7.847687
C 0.185381 2.923890 4.883281
C 1.510709 3.094841 9.969515
C 1.547723 4.401096 11.248766
C 0.222396 4.230145 12.091344
C 0.185381 2.923890 9.126937
C 1.251359 5.536503 1.482203
C 1.288373 6.842757 2.761453
C -0.036954 6.671807 3.604031
C -0.073969 5.365552 0.639625
C 1.251359 5.536503 5.725859
C 1.288373 6.842757 7.005109
C -0.036954 6.671807 7.847687
C -0.073969 5.365552 4.883281
C 1.251359 5.536503 9.969515
C 1.288373 6.842757 11.248766
C -0.036954 6.671807 12.091344
C -0.073969 5.365552 9.126937
C 4.281213 0.653179 1.482203
C 4.318228 1.959434 2.761453
C 2.992901 1.788483 3.604031
C 2.955886 0.482228 0.639625
C 4.281213 0.653179 5.725859
C 4.318228 1.959434 7.005109
C 2.992901 1.788483 7.847687
C 2.955886 0.482228 4.883281
C 4.281213 0.653179 9.969515
C 4.318228 1.959434 11.248766
C 2.992901 1.788483 12.091344
C 2.955886 0.482228 9.126937
C 4.021863 3.094841 1.482203
C 4.058878 4.401096 2.761453
C 2.733551 4.230145 3.604031
C 2.696536 2.923890 0.639625
C 4.021863 3.094841 5.725859
C 4.058878 4.401096 7.005109
C 2.733551 4.230145 7.847687
C 2.696536 2.923890 4.883281
C 4.021863 3.094841 9.969515
C 4.058878 4.401096 11.248766
C 2.733551 4.230145 12.091344
C 2.696536 2.923890 9.126937
C 3.762513 5.536503 1.482203
C 3.799528 6.842757 2.761453
C 2.474201 6.671807 3.604031
C 2.437186 5.365552 0.639625
C 3.762513 5.536503 5.725859
C 3.799528 6.842757 7.005109
C 2.474201 6.671807 7.847687
C 2.437186 5.365552 4.883281
C 3.762513 5.536503 9.969515
C 3.799528 6.842757 11.248766
C 2.474201 6.671807 12.091344
C 2.437186 5.365552 9.126937
C 6.792368 0.653179 1.482203
C 6.829382 1.959434 2.761453
C 5.504055 1.788483 3.604031
C 5.467040 0.482228 0.639625
C 6.792368 0.653179 5.725859
C 6.829382 1.959434 7.005109
C 5.504055 1.788483 7.847687
C 5.467040 0.482228 4.883281
C 6.792368 0.653179 9.969515
C 6.829382 1.959434 11.248766
C 5.504055 1.788483 12.091344
C 5.467040 0.482228 9.126937
C 6.533018 3.094841 1.482203
C 6.570032 4.401096 2.761453
C 5.244705 4.230145 3.604031
C 5.207690 2.923890 0.639625
C 6.533018 3.094841 5.725859
C 6.570032 4.401096 7.005109
C 5.244705 4.230145 7.847687
C 5.207690 2.923890 4.883281
C 6.533018 3.094841 9.969515
C 6.570032 4.401096 11.248766
C 5.244705 4.230145 12.091344
C 5.207690 2.923890 9.126937
C 6.273668 5.536503 1.482203
C 6.310682 6.842757 2.761453
C 4.985355 6.671807 3.604031
C 4.948340 5.365552 0.639625
C 6.273668 5.536503 5.725859
C 6.310682 6.842757 7.005109
C 4.985355 6.671807 7.847687
C 4.948340 5.365552 4.883281
C 6.273668 5.536503 9.969515
C 6.310682 6.842757 11.248766
C 4.985355 6.671807 12.091344
C 4.948340 5.365552 9.126937
