108
A
C 0.304366 0.888964 5.097723
C 1.540267 1.603063 5.060636
C -0.924551 1.605737 1.678938
C 1.547170 0.180636 1.708832
C 0.304366 0.888964 11.863507
C 1.540267 1.603063 11.826420
C -0.924551 1.605737 8.444722
C 1.547170 0.180636 8.474616
C 0.304366 0.888964 18.629291
C 1.540267 1.603063 18.592204
C -0.924551 1.605737 15.210506
C 1.547170 0.180636 15.240400
C -0.931455 3.028164 5.097723
C 0.304446 3.742264 5.060636
C -2.160373 3.744938 1.678938
C 0.311349 2.319837 1.708832
C -0.931455 3.028164 11.863507
C 0.304446 3.742264 11.826420
C -2.160373 3.744938 8.444722
C 0.311349 2.319837 8.474616
C -0.931455 3.028164 18.629291
C 0.304446 3.742264 18.592204
C -2.160373 3.744938 15.210506
C 0.311349 2.319837 15.240400
C -2.167276 5.167365 5.097723
C -0.931376 5.881464 5.060636
C -3.396194 5.884138 1.678938
C -0.924472 4.459037 1.708832
C -2.167276 5.167365 11.863507
C -0.931376 5.881464 11.826420
C -3.396194 5.884138 8.444722
C -0.924472 4.459037 8.474616
C -2.167276 5.167365 18.629291
C -0.931376 5.881464 18.592204
C -3.396194 5.884138 15.210506
C -0.924472 4.459037 15.240400
C 2.773813 0.888964 5.105004
C 4.009714 1.603063 5.067916
C 1.544896 1.605737 1.686219
C 4.016618 0.180636 1.716113
C 2.773813 0.888964 11.870788
C 4.009714 1.603063 11.833700
C 1.544896 1.605737 8.452003
C 4.016618 0.180636 8.481896
C 2.773813 0.888964 18.636572
C 4.009714 1.603063 18.599484
C 1.544896 1.605737 15.217787
C 4.016618 0.180636 15.247680
C 1.537992 3.028164 5.105004
C 2.773893 3.742264 5.067916
C 0.309075 3.744938 1.686219
C 2.780796 2.319837 1.716113
C 1.537992 3.028164 11.870788
C 2.773893 3.742264 11.833700
C 0.309075 3.744938 8.452003
C 2.780796 2.319837 8.481896
C 1.537992 3.028164 18.636572
C 2.773893 3.742264 18.599484
C 0.309075 3.744938 15.217787
C 2.780796 2.319837 15.247680
C 0.302171 5.167365 5.105004
C 1.538072 5.881464 5.067916
C -0.926747 5.884138 1.686219
C 1.544975 4.459037 1.716113
C 0.302171 5.167365 11.870788
C 1.538072 5.881464 11.833700
C -0.926747 5.884138 8.452003
C 1.544975 4.459037 8.481896
C 0.302171 5.167365 18.636572
C 1.538072 5.881464 18.599484
C -0.926747 5.884138 15.217787
C 1.544975 4.459037 15.247680
C 5.243261 0.888964 5.112285
C 6.479161 1.603063 5.075197
C 4.014343 1.605737 1.693500
C 6.486065 0.180636 1.723393
C 5.243261 0.888964 11.878069
C 6.479161 1.603063 11.840981
C 4.014343 1.605737 8.459284
C 6.486065 0.180636 8.489177
C 5.243261 0.888964 18.643853
C 6.479161 1.603063 18.606765
C 4.014343 1.605737 15.225068
C 6.486065 0.180636 15.254961
C 4.007439 3.028164 5.112285
C 5.243340 3.742264 5.075197
C 2.778522 3.744938 1.693500
C 5.250244 2.319837 1.723393
C 4.007439 3.028164 11.878069
C 5.243340 3.742264 11.840981
C 2.778522 3.744938 8.459284
C 5.250244 2.319837 8.489177
C 4.007439 3.028164 18.643853
C 5.243340 3.742264 18.606765
C 2.778522 3.744938 15.225068
C 5.250244 2.319837 15.254961
C 2.771618 5.167365 5.112285
C 4.007519 5.881464 5.075197
C 1.542701 5.884138 1.693500
C 4.014422 4.459037 1.723393
C 2.771618 5.167365 11.878069
C 4.007519 5.881464 11.840981
C 1.542701 5.884138 8.459284
C 4.014422 4.459037 8.489177
C 2.771618 5.167365 18.643853
C 4.007519 5.881464 18.606765
C 1.542701 5.884138 15.225068
C 4.014422 4.459037 15.254961
