108
A
C 1.639844 0.673017 1.592038
C 1.694195 2.018851 3.328494
C 0.341670 1.688213 4.052304
C 0.287320 0.342378 0.868228
C 1.639844 0.673017 6.512571
C 1.694195 2.018851 8.249027
C 0.341670 1.688213 8.972837
C 0.287320 0.342378 5.788760
C 1.639844 0.673017 11.433103
C 1.694195 2.018851 13.169559
C 0.341670 1.688213 13.893369
C 0.287320 0.342378 10.709293
C 1.121144 3.034246 1.592038
C 1.175495 4.380081 3.328494
C -0.177030 4.049442 4.052304
C -0.231380 2.703608 0.868228
C 1.121144 3.034246 6.512571
C 1.175495 4.380081 8.249027
C -0.177030 4.049442 8.972837
C -0.231380 2.703608 5.788760
C 1.121144 3.034246 11.433103
C 1.175495 4.380081 13.169559
C -0.177030 4.049442 13.893369
C -0.231380 2.703608 10.709293
C 0.602444 5.395475 1.592038
C 0.656795 6.741310 3.328494
C -0.695730 6.410672 4.052304
C -0.750080 5.064837 0.868228
C 0.602444 5.395475 6.512571
C 0.656795 6.741310 8.249027
C -0.695730 6.410672 8.972837
C -0.750080 5.064837 5.788760
C 0.602444 5.395475 11.433103
C 0.656795 6.741310 13.169559
C -0.695730 6.410672 13.893369
C -0.750080 5.064837 10.709293
C 4.140059 0.673017 1.592038
C 4.194410 2.018851 3.328494
C 2.841885 1.688213 4.052304
C 2.787534 0.342378 0.868228
C 4.140059 0.673017 6.512571
C 4.194410 2.018851 8.249027
C 2.841885 1.688213 8.972837
C 2.787534 0.342378 5.788760
C 4.140059 0.673017 11.433103
C 4.194410 2.018851 13.169559
C 2.841885 1.688213 13.893369
C 2.787534 0.342378 10.709293
C 3.621359 3.034246 1.592038
C 3.675710 4.380081 3.328494
C 2.323185 4.049442 4.052304
C 2.268834 2.703608 0.868228
C 3.621359 3.034246 6.512571
C 3.675710 4.380081 8.249027
C 2.323185 4.049442 8.972837
C 2.268834 2.703608 5.788760
C 3.621359 3.034246 11.433103
C 3.675710 4.380081 13.169559
C 2.323185 4.049442 13.893369
C 2.268834 2.703608 10.709293
C 3.102659 5.395475 1.592038
C 3.157010 6.741310 3.328494
C 1.804485 6.410672 4.052304
C 1.750134 5.064837 0.868228
C 3.102659 5.395475 6.512571
C 3.157010 6.741310 8.249027
C 1.804485 6.410672 8.972837
C 1.750134 5.064837 5.788760
C 3.102659 5.395475 11.433103
C 3.157010 6.741310 13.169559
C 1.804485 6.410672 13.893369
C 1.750134 5.064837 10.709293
C 6.640274 0.673017 1.592038
C 6.694624 2.018851 3.328494
C 5.342100 1.688213 4.052304
C 5.287749 0.342378 0.868228
C 6.640274 0.673017 6.512571
C 6.694624 2.018851 8.249027
C 5.342100 1.688213 8.972837
C 5.287749 0.342378 5.788760
C 6.640274 0.673017 11.433103
C 6.694624 2.018851 13.169559
C 5.342100 1.688213 13.893369
C 5.287749 0.342378 10.709293
C 6.121574 3.034246 1.592038
C 6.175924 4.380081 3.328494
C 4.823400 4.049442 4.052304
C 4.769049 2.703608 0.868228
C 6.121574 3.034246 6.512571
C 6.175924 4.380081 8.249027
C 4.823400 4.049442 8.972837
C 4.769049 2.703608 5.788760
C 6.121574 3.034246 11.433103
C 6.175924 4.380081 13.169559
C 4.823400 4.049442 13.893369
C 4.769049 2.703608 10.709293
C 5.602874 5.395475 1.592038
C 5.657224 6.741310 3.328494
C 4.304700 6.410672 4.052304
C 4.250349 5.064837 0.868228
C 5.602874 5.395475 6.512571
C 5.657224 6.741310 8.249027
C 4.304700 6.410672 8.972837
C 4.250349 5.064837 5.788760
C 5.602874 5.395475 11.433103
C 5.657224 6.741310 13.169559
C 4.304700 6.410672 13.893369
C 4.250349 5.064837 10.709293
