108
A
C 1.500929 0.690037 1.667048
C 1.552937 2.069823 3.930360
C 0.210296 1.590760 4.465753
C 0.158288 0.210974 1.131656
C 1.500929 0.690037 7.264457
C 1.552937 2.069823 9.527769
C 0.210296 1.590760 10.063161
C 0.158288 0.210974 6.729065
C 1.500929 0.690037 12.861865
C 1.552937 2.069823 15.125178
C 0.210296 1.590760 15.660570
C 0.158288 0.210974 12.326473
C 0.722879 2.970834 1.667048
C 0.774887 4.350620 3.930360
C -0.567754 3.871557 4.465753
C -0.619762 2.491771 1.131656
C 0.722879 2.970834 7.264457
C 0.774887 4.350620 9.527769
C -0.567754 3.871557 10.063161
C -0.619762 2.491771 6.729065
C 0.722879 2.970834 12.861865
C 0.774887 4.350620 15.125178
C -0.567754 3.871557 15.660570
C -0.619762 2.491771 12.326473
C -0.055171 5.251631 1.667048
C -0.003163 6.631417 3.930360
C -1.345804 6.152354 4.465753
C -1.397812 4.772568 1.131656
C -0.055171 5.251631 7.264457
C -0.003163 6.631417 9.527769
C -1.345804 6.152354 10.063161
C -1.397812 4.772568 6.729065
C -0.055171 5.251631 12.861865
C -0.003163 6.631417 15.125178
C -1.345804 6.152354 15.660570
C -1.397812 4.772568 12.326473
C 3.990204 0.690037 1.667048
C 4.042211 2.069823 3.930360
C 2.699571 1.590760 4.465753
C 2.647563 0.210974 1.131656
C 3.990204 0.690037 7.264457
C 4.042211 2.069823 9.527769
C 2.699571 1.590760 10.063161
C 2.647563 0.210974 6.729065
C 3.990204 0.690037 12.861865
C 4.042211 2.069823 15.125178
C 2.699571 1.590760 15.660570
C 2.647563 0.210974 12.326473
C 3.212154 2.970834 1.667048
C 3.264161 4.350620 3.930360
C 1.921521 3.871557 4.465753
C 1.869513 2.491771 1.131656
C 3.212154 2.970834 7.264457
C 3.264161 4.350620 9.527769
C 1.921521 3.871557 10.063161
C 1.869513 2.491771 6.729065
C 3.212154 2.970834 12.861865
C 3.264161 4.350620 15.125178
C 1.921521 3.871557 15.660570
C 1.869513 2.491771 12.326473
C 2.434104 5.251631 1.667048
C 2.486111 6.631417 3.930360
C 1.143471 6.152354 4.465753
C 1.091463 4.772568 1.131656
C 2.434104 5.251631 7.264457
C 2.486111 6.631417 9.527769
C 1.143471 6.152354 10.063161
C 1.091463 4.772568 6.729065
C 2.434104 5.251631 12.861865
C 2.486111 6.631417 15.125178
C 1.143471 6.152354 15.660570
C 1.091463 4.772568 12.326473
C 6.479479 0.690037 1.667048
C 6.531486 2.069823 3.930360
C 5.188846 1.590760 4.465753
C 5.136838 0.210974 1.131656
C 6.479479 0.690037 7.264457
C 6.531486 2.069823 9.527769
C 5.188846 1.590760 10.063161
C 5.136838 0.210974 6.729065
C 6.479479 0.690037 12.861865
C 6.531486 2.069823 15.125178
C 5.188846 1.590760 15.660570
C 5.136838 0.210974 12.326473
C 5.701429 2.970834 1.667048
C 5.753436 4.350620 3.930360
C 4.410796 3.871557 4.465753
C 4.358788 2.491771 1.131656
C 5.701429 2.970834 7.264457
C 5.753436 4.350620 9.527769
C 4.410796 3.871557 10.063161
C 4.358788 2.491771 6.729065
C 5.701429 2.970834 12.861865
C 5.753436 4.350620 15.125178
C 4.410796 3.871557 15.660570
C 4.358788 2.491771 12.326473
C 4.923379 5.251631 1.667048
C 4.975386 6.631417 3.930360
C 3.632746 6.152354 4.465753
C 3.580738 4.772568 1.131656
C 4.923379 5.251631 7.264457
C 4.975386 6.631417 9.527769
C 3.632746 6.152354 10.063161
C 3.580738 4.772568 6.729065
C 4.923379 5.251631 12.861865
C 4.975386 6.631417 15.125178
C 3.632746 6.152354 15.660570
C 3.580738 4.772568 12.326473
