108
A
C 1.805664 0.646993 1.444425
C 1.834111 1.940906 2.605838
C 0.523366 1.817649 3.469557
C 0.494919 0.523737 0.580706
C 1.805664 0.646993 5.494688
C 1.834111 1.940906 6.656101
C 0.523366 1.817649 7.519820
C 0.494919 0.523737 4.630969
C 1.805664 0.646993 9.544951
C 1.834111 1.940906 10.706364
C 0.523366 1.817649 11.570083
C 0.494919 0.523737 8.681232
C 1.620414 3.111636 1.444425
C 1.648861 4.405549 2.605838
C 0.338116 4.282292 3.469557
C 0.309669 2.988379 0.580706
C 1.620414 3.111636 5.494688
C 1.648861 4.405549 6.656101
C 0.338116 4.282292 7.519820
C 0.309669 2.988379 4.630969
C 1.620414 3.111636 9.544951
C 1.648861 4.405549 10.706364
C 0.338116 4.282292 11.570083
C 0.309669 2.988379 8.681232
C 1.435164 5.576279 1.444425
C 1.463611 6.870191 2.605838
C 0.152866 6.746934 3.469557
C 0.124419 5.453022 0.580706
C 1.435164 5.576279 5.494688
C 1.463611 6.870191 6.656101
C 0.152866 6.746934 7.519820
C 0.124419 5.453022 4.630969
C 1.435164 5.576279 9.544951
C 1.463611 6.870191 10.706364
C 0.152866 6.746934 11.570083
C 0.124419 5.453022 8.681232
C 4.319944 0.646993 1.444425
C 4.348391 1.940906 2.605838
C 3.037646 1.817649 3.469557
C 3.009199 0.523737 0.580706
C 4.319944 0.646993 5.494688
C 4.348391 1.940906 6.656101
C 3.037646 1.817649 7.519820
C 3.009199 0.523737 4.630969
C 4.319944 0.646993 9.544951
C 4.348391 1.940906 10.706364
C 3.037646 1.817649 11.570083
C 3.009199 0.523737 8.681232
C 4.134694 3.111636 1.444425
C 4.163141 4.405549 2.605838
C 2.852396 4.282292 3.469557
C 2.823949 2.988379 0.580706
C 4.134694 3.111636 5.494688
C 4.163141 4.405549 6.656101
C 2.852396 4.282292 7.519820
C 2.823949 2.988379 4.630969
C 4.134694 3.111636 9.544951
C 4.163141 4.405549 10.706364
C 2.852396 4.282292 11.570083
C 2.823949 2.988379 8.681232
C 3.949444 5.576279 1.444425
C 3.977891 6.870191 2.605838
C 2.667146 6.746934 3.469557
C 2.638699 5.453022 0.580706
C 3.949444 5.576279 5.494688
C 3.977891 6.870191 6.656101
C 2.667146 6.746934 7.519820
C 2.638699 5.453022 4.630969
C 3.949444 5.576279 9.544951
C 3.977891 6.870191 10.706364
C 2.667146 6.746934 11.570083
C 2.638699 5.453022 8.681232
C 6.834225 0.646993 1.444425
C 6.862672 1.940906 2.605838
C 5.551926 1.817649 3.469557
C 5.523479 0.523737 0.580706
C 6.834225 0.646993 5.494688
C 6.862672 1.940906 6.656101
C 5.551926 1.817649 7.519820
C 5.523479 0.523737 4.630969
C 6.834225 0.646993 9.544951
C 6.862672 1.940906 10.706364
C 5.551926 1.817649 11.570083
C 5.523479 0.523737 8.681232
C 6.648975 3.111636 1.444425
C 6.677422 4.405549 2.605838
C 5.366676 4.282292 3.469557
C 5.338229 2.988379 0.580706
C 6.648975 3.111636 5.494688
C 6.677422 4.405549 6.656101
C 5.366676 4.282292 7.519820
C 5.338229 2.988379 4.630969
C 6.648975 3.111636 9.544951
C 6.677422 4.405549 10.706364
C 5.366676 4.282292 11.570083
C 5.338229 2.988379 8.681232
C 6.463725 5.576279 1.444425
C 6.492172 6.870191 2.605838
C 5.181426 6.746934 3.469557
C 5.152979 5.453022 0.580706
C 6.463725 5.576279 5.494688
C 6.492172 6.870191 6.656101
C 5.181426 6.746934 7.519820
C 5.152979 5.453022 4.630969
C 6.463725 5.576279 9.544951
C 6.492172 6.870191 10.706364
C 5.181426 6.746934 11.570083
C 5.152979 5.453022 8.681232
