108
A
C 0.273793 0.873712 5.013799
C 1.515953 1.594318 4.956714
C -0.912729 1.615718 1.667460
C 1.571000 0.196300 1.671061
C 0.273793 0.873712 11.610071
C 1.515953 1.594318 11.552985
C -0.912729 1.615718 8.263732
C 1.571000 0.196300 8.267332
C 0.273793 0.873712 18.206342
C 1.515953 1.594318 18.149257
C -0.912729 1.615718 14.860004
C 1.571000 0.196300 14.863604
C -0.967777 3.013736 5.013799
C 0.274383 3.734342 4.956714
C -2.154299 3.755742 1.667460
C 0.329431 2.336324 1.671061
C -0.967777 3.013736 11.610071
C 0.274383 3.734342 11.552985
C -2.154299 3.755742 8.263732
C 0.329431 2.336324 8.267332
C -0.967777 3.013736 18.206342
C 0.274383 3.734342 18.149257
C -2.154299 3.755742 14.860004
C 0.329431 2.336324 14.863604
C -2.209347 5.153760 5.013799
C -0.967187 5.874366 4.956714
C -3.395869 5.895766 1.667460
C -0.912139 4.476348 1.671061
C -2.209347 5.153760 11.610071
C -0.967187 5.874366 11.552985
C -3.395869 5.895766 8.263732
C -0.912139 4.476348 8.267332
C -2.209347 5.153760 18.206342
C -0.967187 5.874366 18.149257
C -3.395869 5.895766 14.860004
C -0.912139 4.476348 14.863604
C 2.739370 0.873712 5.072044
C 3.981530 1.594318 5.014959
C 1.552848 1.615718 1.725706
C 4.036578 0.196300 1.729306
C 2.739370 0.873712 11.668316
C 3.981530 1.594318 11.611231
C 1.552848 1.615718 8.321977
C 4.036578 0.196300 8.325578
C 2.739370 0.873712 18.264588
C 3.981530 1.594318 18.207502
C 1.552848 1.615718 14.918249
C 4.036578 0.196300 14.921849
C 1.497801 3.013736 5.072044
C 2.739961 3.734342 5.014959
C 0.311279 3.755742 1.725706
C 2.795008 2.336324 1.729306
C 1.497801 3.013736 11.668316
C 2.739961 3.734342 11.611231
C 0.311279 3.755742 8.321977
C 2.795008 2.336324 8.325578
C 1.497801 3.013736 18.264588
C 2.739961 3.734342 18.207502
C 0.311279 3.755742 14.918249
C 2.795008 2.336324 14.921849
C 0.256231 5.153760 5.072044
C 1.498391 5.874366 5.014959
C -0.930291 5.895766 1.725706
C 1.553439 4.476348 1.729306
C 0.256231 5.153760 11.668316
C 1.498391 5.874366 11.611231
C -0.930291 5.895766 8.321977
C 1.553439 4.476348 8.325578
C 0.256231 5.153760 18.264588
C 1.498391 5.874366 18.207502
C -0.930291 5.895766 14.918249
C 1.553439 4.476348 14.921849
C 5.204948 0.873712 5.130290
C 6.447108 1.594318 5.073204
C 4.018426 1.615718 1.783951
C 6.502156 0.196300 1.787551
C 5.204948 0.873712 11.726561
C 6.447108 1.594318 11.669476
C 4.018426 1.615718 8.380222
C 6.502156 0.196300 8.383823
C 5.204948 0.873712 18.322833
C 6.447108 1.594318 18.265748
C 4.018426 1.615718 14.976494
C 6.502156 0.196300 14.980095
C 3.963378 3.013736 5.130290
C 5.205538 3.734342 5.073204
C 2.776856 3.755742 1.783951
C 5.260586 2.336324 1.787551
C 3.963378 3.013736 11.726561
C 5.205538 3.734342 11.669476
C 2.776856 3.755742 8.380222
C 5.260586 2.336324 8.383823
C 3.963378 3.013736 18.322833
C 5.205538 3.734342 18.265748
C 2.776856 3.755742 14.976494
C 5.260586 2.336324 14.980095
C 2.721809 5.153760 5.130290
C 3.963969 5.874366 5.073204
C 1.535287 5.895766 1.783951
C 4.019016 4.476348 1.787551
C 2.721809 5.153760 11.726561
C 3.963969 5.874366 11.669476
C 1.535287 5.895766 8.380222
C 4.019016 4.476348 8.383823
C 2.721809 5.153760 18.322833
C 3.963969 5.874366 18.265748
C 1.535287 5.895766 14.976494
C 4.019016 4.476348 14.980095
