108
A
C 0.040412 0.753456 4.253133
C 1.329018 1.525353 4.158697
C -0.823947 1.694390 1.554634
C 1.751395 0.319791 1.479677
C 0.040412 0.753456 9.517522
C 1.329018 1.525353 9.423087
C -0.823947 1.694390 6.819023
C 1.751395 0.319791 6.744066
C 0.040412 0.753456 14.781911
C 1.329018 1.525353 14.687476
C -0.823947 1.694390 12.083413
C 1.751395 0.319791 12.008455
C -1.246324 2.899952 4.253133
C 0.042282 3.671849 4.158697
C -2.110683 3.840886 1.554634
C 0.464658 2.466287 1.479677
C -1.246324 2.899952 9.517522
C 0.042282 3.671849 9.423087
C -2.110683 3.840886 6.819023
C 0.464658 2.466287 6.744066
C -1.246324 2.899952 14.781911
C 0.042282 3.671849 14.687476
C -2.110683 3.840886 12.083413
C 0.464658 2.466287 12.008455
C -2.533060 5.046448 4.253133
C -1.244455 5.818345 4.158697
C -3.397420 5.987381 1.554634
C -0.822078 4.612783 1.479677
C -2.533060 5.046448 9.517522
C -1.244455 5.818345 9.423087
C -3.397420 5.987381 6.819023
C -0.822078 4.612783 6.744066
C -2.533060 5.046448 14.781911
C -1.244455 5.818345 14.687476
C -3.397420 5.987381 12.083413
C -0.822078 4.612783 12.008455
C 2.475586 0.753456 4.711815
C 3.764192 1.525353 4.617379
C 1.611227 1.694390 2.013316
C 4.186569 0.319791 1.938358
C 2.475586 0.753456 9.976204
C 3.764192 1.525353 9.881768
C 1.611227 1.694390 7.277705
C 4.186569 0.319791 7.202748
C 2.475586 0.753456 15.240593
C 3.764192 1.525353 15.146157
C 1.611227 1.694390 12.542094
C 4.186569 0.319791 12.467137
C 1.188850 2.899952 4.711815
C 2.477456 3.671849 4.617379
C 0.324491 3.840886 2.013316
C 2.899833 2.466287 1.938358
C 1.188850 2.899952 9.976204
C 2.477456 3.671849 9.881768
C 0.324491 3.840886 7.277705
C 2.899833 2.466287 7.202748
C 1.188850 2.899952 15.240593
C 2.477456 3.671849 15.146157
C 0.324491 3.840886 12.542094
C 2.899833 2.466287 12.467137
C -0.097886 5.046448 4.711815
C 1.190720 5.818345 4.617379
C -0.962245 5.987381 2.013316
C 1.613097 4.612783 1.938358
C -0.097886 5.046448 9.976204
C 1.190720 5.818345 9.881768
C -0.962245 5.987381 7.277705
C 1.613097 4.612783 7.202748
C -0.097886 5.046448 15.240593
C 1.190720 5.818345 15.146157
C -0.962245 5.987381 12.542094
C 1.613097 4.612783 12.467137
C 4.910761 0.753456 5.170496
C 6.199367 1.525353 5.076060
C 4.046402 1.694390 2.471997
C 6.621744 0.319791 2.397040
C 4.910761 0.753456 10.434885
C 6.199367 1.525353 10.340450
C 4.046402 1.694390 7.736386
C 6.621744 0.319791 7.661429
C 4.910761 0.753456 15.699274
C 6.199367 1.525353 15.604839
C 4.046402 1.694390 13.000776
C 6.621744 0.319791 12.925818
C 3.624025 2.899952 5.170496
C 4.912631 3.671849 5.076060
C 2.759666 3.840886 2.471997
C 5.335008 2.466287 2.397040
C 3.624025 2.899952 10.434885
C 4.912631 3.671849 10.340450
C 2.759666 3.840886 7.736386
C 5.335008 2.466287 7.661429
C 3.624025 2.899952 15.699274
C 4.912631 3.671849 15.604839
C 2.759666 3.840886 13.000776
C 5.335008 2.466287 12.925818
C 2.337289 5.046448 5.170496
C 3.625895 5.818345 5.076060
C 1.472930 5.987381 2.471997
C 4.048271 4.612783 2.397040
C 2.337289 5.046448 10.434885
C 3.625895 5.818345 10.340450
C 1.472930 5.987381 7.736386
C 4.048271 4.612783 7.661429
C 2.337289 5.046448 15.699274
C 3.625895 5.818345 15.604839
C 1.472930 5.987381 13.000776
C 4.048271 4.612783 12.925818
