108
A
C 1.811529 0.645940 1.437852
C 1.838392 1.937751 2.580178
C 0.530372 1.822533 3.446868
C 0.503509 0.530722 0.571163
C 1.811529 0.645940 5.455883
C 1.838392 1.937751 6.598209
C 0.530372 1.822533 7.464899
C 0.503509 0.530722 4.589194
C 1.811529 0.645940 9.473914
C 1.838392 1.937751 10.616240
C 0.530372 1.822533 11.482929
C 0.503509 0.530722 8.607225
C 1.638629 3.114413 1.437852
C 1.665492 4.406224 2.580178
C 0.357472 4.291005 3.446868
C 0.330609 2.999194 0.571163
C 1.638629 3.114413 5.455883
C 1.665492 4.406224 6.598209
C 0.357472 4.291005 7.464899
C 0.330609 2.999194 4.589194
C 1.638629 3.114413 9.473914
C 1.665492 4.406224 10.616240
C 0.357472 4.291005 11.482929
C 0.330609 2.999194 8.607225
C 1.465729 5.582885 1.437852
C 1.492592 6.874696 2.580178
C 0.184572 6.759478 3.446868
C 0.157709 5.467667 0.571163
C 1.465729 5.582885 5.455883
C 1.492592 6.874696 6.598209
C 0.184572 6.759478 7.464899
C 0.157709 5.467667 4.589194
C 1.465729 5.582885 9.473914
C 1.492592 6.874696 10.616240
C 0.184572 6.759478 11.482929
C 0.157709 5.467667 8.607225
C 4.326331 0.645940 1.437852
C 4.353193 1.937751 2.580178
C 3.045173 1.822533 3.446868
C 3.018310 0.530722 0.571163
C 4.326331 0.645940 5.455883
C 4.353193 1.937751 6.598209
C 3.045173 1.822533 7.464899
C 3.018310 0.530722 4.589194
C 4.326331 0.645940 9.473914
C 4.353193 1.937751 10.616240
C 3.045173 1.822533 11.482929
C 3.018310 0.530722 8.607225
C 4.153431 3.114413 1.437852
C 4.180293 4.406224 2.580178
C 2.872273 4.291005 3.446868
C 2.845410 2.999194 0.571163
C 4.153431 3.114413 5.455883
C 4.180293 4.406224 6.598209
C 2.872273 4.291005 7.464899
C 2.845410 2.999194 4.589194
C 4.153431 3.114413 9.473914
C 4.180293 4.406224 10.616240
C 2.872273 4.291005 11.482929
C 2.845410 2.999194 8.607225
C 3.980531 5.582885 1.437852
C 4.007393 6.874696 2.580178
C 2.699373 6.759478 3.446868
C 2.672510 5.467667 0.571163
C 3.980531 5.582885 5.455883
C 4.007393 6.874696 6.598209
C 2.699373 6.759478 7.464899
C 2.672510 5.467667 4.589194
C 3.980531 5.582885 9.473914
C 4.007393 6.874696 10.616240
C 2.699373 6.759478 11.482929
C 2.672510 5.467667 8.607225
C 6.841132 0.645940 1.437852
C 6.867995 1.937751 2.580178
C 5.559974 1.822533 3.446868
C 5.533111 0.530722 0.571163
C 6.841132 0.645940 5.455883
C 6.867995 1.937751 6.598209
C 5.559974 1.822533 7.464899
C 5.533111 0.530722 4.589194
C 6.841132 0.645940 9.473914
C 6.867995 1.937751 10.616240
C 5.559974 1.822533 11.482929
C 5.533111 0.530722 8.607225
C 6.668232 3.114413 1.437852
C 6.695095 4.406224 2.580178
C 5.387074 4.291005 3.446868
C 5.360211 2.999194 0.571163
C 6.668232 3.114413 5.455883
C 6.695095 4.406224 6.598209
C 5.387074 4.291005 7.464899
C 5.360211 2.999194 4.589194
C 6.668232 3.114413 9.473914
C 6.695095 4.406224 10.616240
C 5.387074 4.291005 11.482929
C 5.360211 2.999194 8.607225
C 6.495332 5.582885 1.437852
C 6.522195 6.874696 2.580178
C 5.214174 6.759478 3.446868
C 5.187311 5.467667 0.571163
C 6.495332 5.582885 5.455883
C 6.522195 6.874696 6.598209
C 5.214174 6.759478 7.464899
C 5.187311 5.467667 4.589194
C 6.495332 5.582885 9.473914
C 6.522195 6.874696 10.616240
C 5.214174 6.759478 11.482929
C 5.187311 5.467667 8.607225
