108
A
C 1.626989 0.674759 1.600682
C 1.681965 2.024070 3.384314
C 0.328783 1.678810 4.093181
C 0.273808 0.329500 0.891816
C 1.626989 0.674759 6.585679
C 1.681965 2.024070 8.369311
C 0.328783 1.678810 9.078178
C 0.273808 0.329500 5.876813
C 1.626989 0.674759 11.570676
C 1.681965 2.024070 13.354308
C 0.328783 1.678810 14.063174
C 0.273808 0.329500 10.861810
C 1.083589 3.028328 1.600682
C 1.138565 4.377639 3.384314
C -0.214617 4.032380 4.093181
C -0.269592 2.683069 0.891816
C 1.083589 3.028328 6.585679
C 1.138565 4.377639 8.369311
C -0.214617 4.032380 9.078178
C -0.269592 2.683069 5.876813
C 1.083589 3.028328 11.570676
C 1.138565 4.377639 13.354308
C -0.214617 4.032380 14.063174
C -0.269592 2.683069 10.861810
C 0.540189 5.381897 1.600682
C 0.595165 6.731208 3.384314
C -0.758017 6.385949 4.093181
C -0.812992 5.036638 0.891816
C 0.540189 5.381897 6.585679
C 0.595165 6.731208 8.369311
C -0.758017 6.385949 9.078178
C -0.812992 5.036638 5.876813
C 0.540189 5.381897 11.570676
C 0.595165 6.731208 13.354308
C -0.758017 6.385949 14.063174
C -0.812992 5.036638 10.861810
C 4.126162 0.674759 1.600682
C 4.181137 2.024070 3.384314
C 2.827956 1.678810 4.093181
C 2.772981 0.329500 0.891816
C 4.126162 0.674759 6.585679
C 4.181137 2.024070 8.369311
C 2.827956 1.678810 9.078178
C 2.772981 0.329500 5.876813
C 4.126162 0.674759 11.570676
C 4.181137 2.024070 13.354308
C 2.827956 1.678810 14.063174
C 2.772981 0.329500 10.861810
C 3.582762 3.028328 1.600682
C 3.637737 4.377639 3.384314
C 2.284556 4.032380 4.093181
C 2.229581 2.683069 0.891816
C 3.582762 3.028328 6.585679
C 3.637737 4.377639 8.369311
C 2.284556 4.032380 9.078178
C 2.229581 2.683069 5.876813
C 3.582762 3.028328 11.570676
C 3.637737 4.377639 13.354308
C 2.284556 4.032380 14.063174
C 2.229581 2.683069 10.861810
C 3.039362 5.381897 1.600682
C 3.094337 6.731208 3.384314
C 1.741156 6.385949 4.093181
C 1.686181 5.036638 0.891816
C 3.039362 5.381897 6.585679
C 3.094337 6.731208 8.369311
C 1.741156 6.385949 9.078178
C 1.686181 5.036638 5.876813
C 3.039362 5.381897 11.570676
C 3.094337 6.731208 13.354308
C 1.741156 6.385949 14.063174
C 1.686181 5.036638 10.861810
C 6.625335 0.674759 1.600682
C 6.680310 2.024070 3.384314
C 5.327129 1.678810 4.093181
C 5.272154 0.329500 0.891816
C 6.625335 0.674759 6.585679
C 6.680310 2.024070 8.369311
C 5.327129 1.678810 9.078178
C 5.272154 0.329500 5.876813
C 6.625335 0.674759 11.570676
C 6.680310 2.024070 13.354308
C 5.327129 1.678810 14.063174
C 5.272154 0.329500 10.861810
C 6.081935 3.028328 1.600682
C 6.136910 4.377639 3.384314
C 4.783729 4.032380 4.093181
C 4.728754 2.683069 0.891816
C 6.081935 3.028328 6.585679
C 6.136910 4.377639 8.369311
C 4.783729 4.032380 9.078178
C 4.728754 2.683069 5.876813
C 6.081935 3.028328 11.570676
C 6.136910 4.377639 13.354308
C 4.783729 4.032380 14.063174
C 4.728754 2.683069 10.861810
C 5.538535 5.381897 1.600682
C 5.593510 6.731208 3.384314
C 4.240329 6.385949 4.093181
C 4.185354 5.036638 0.891816
C 5.538535 5.381897 6.585679
C 5.593510 6.731208 8.369311
C 4.240329 6.385949 9.078178
C 4.185354 5.036638 5.876813
C 5.538535 5.381897 11.570676
C 5.593510 6.731208 13.354308
C 4.240329 6.385949 14.063174
C 4.185354 5.036638 10.861810
