108
A
C 1.346065 0.704846 1.708278
C 1.374512 2.114164 4.598239
C 0.081999 1.491689 4.861536
C 0.053552 0.082370 1.444981
C 1.346065 0.704846 8.014795
C 1.374512 2.114164 10.904756
C 0.081999 1.491689 11.168053
C 0.053552 0.082370 7.751498
C 1.346065 0.704846 14.321312
C 1.374512 2.114164 17.211273
C 0.081999 1.491689 17.474570
C 0.053552 0.082370 14.058015
C 0.296315 2.901380 1.708278
C 0.324762 4.310699 4.598239
C -0.967751 3.688223 4.861536
C -0.996198 2.278905 1.444981
C 0.296315 2.901380 8.014795
C 0.324762 4.310699 10.904756
C -0.967751 3.688223 11.168053
C -0.996198 2.278905 7.751498
C 0.296315 2.901380 14.321312
C 0.324762 4.310699 17.211273
C -0.967751 3.688223 17.474570
C -0.996198 2.278905 14.058015
C -0.753435 5.097915 1.708278
C -0.724988 6.507233 4.598239
C -2.017501 5.884758 4.861536
C -2.045948 4.475439 1.444981
C -0.753435 5.097915 8.014795
C -0.724988 6.507233 10.904756
C -2.017501 5.884758 11.168053
C -2.045948 4.475439 7.751498
C -0.753435 5.097915 14.321312
C -0.724988 6.507233 17.211273
C -2.017501 5.884758 17.474570
C -2.045948 4.475439 14.058015
C 3.823879 0.704846 1.708278
C 3.852326 2.114164 4.598239
C 2.559814 1.491689 4.861536
C 2.531367 0.082370 1.444981
C 3.823879 0.704846 8.014795
C 3.852326 2.114164 10.904756
C 2.559814 1.491689 11.168053
C 2.531367 0.082370 7.751498
C 3.823879 0.704846 14.321312
C 3.852326 2.114164 17.211273
C 2.559814 1.491689 17.474570
C 2.531367 0.082370 14.058015
C 2.774129 2.901380 1.708278
C 2.802576 4.310699 4.598239
C 1.510064 3.688223 4.861536
C 1.481617 2.278905 1.444981
C 2.774129 2.901380 8.014795
C 2.802576 4.310699 10.904756
C 1.510064 3.688223 11.168053
C 1.481617 2.278905 7.751498
C 2.774129 2.901380 14.321312
C 2.802576 4.310699 17.211273
C 1.510064 3.688223 17.474570
C 1.481617 2.278905 14.058015
C 1.724379 5.097915 1.708278
C 1.752826 6.507233 4.598239
C 0.460314 5.884758 4.861536
C 0.431867 4.475439 1.444981
C 1.724379 5.097915 8.014795
C 1.752826 6.507233 10.904756
C 0.460314 5.884758 11.168053
C 0.431867 4.475439 7.751498
C 1.724379 5.097915 14.321312
C 1.752826 6.507233 17.211273
C 0.460314 5.884758 17.474570
C 0.431867 4.475439 14.058015
C 6.301693 0.704846 1.708278
C 6.330140 2.114164 4.598239
C 5.037628 1.491689 4.861536
C 5.009181 0.082370 1.444981
C 6.301693 0.704846 8.014795
C 6.330140 2.114164 10.904756
C 5.037628 1.491689 11.168053
C 5.009181 0.082370 7.751498
C 6.301693 0.704846 14.321312
C 6.330140 2.114164 17.211273
C 5.037628 1.491689 17.474570
C 5.009181 0.082370 14.058015
C 5.251943 2.901380 1.708278
C 5.280390 4.310699 4.598239
C 3.987878 3.688223 4.861536
C 3.959431 2.278905 1.444981
C 5.251943 2.901380 8.014795
C 5.280390 4.310699 10.904756
C 3.987878 3.688223 11.168053
C 3.959431 2.278905 7.751498
C 5.251943 2.901380 14.321312
C 5.280390 4.310699 17.211273
C 3.987878 3.688223 17.474570
C 3.959431 2.278905 14.058015
C 4.202193 5.097915 1.708278
C 4.230640 6.507233 4.598239
C 2.938128 5.884758 4.861536
C 2.909681 4.475439 1.444981
C 4.202193 5.097915 8.014795
C 4.230640 6.507233 10.904756
C 2.938128 5.884758 11.168053
C 2.909681 4.475439 7.751498
C 4.202193 5.097915 14.321312
C 4.230640 6.507233 17.211273
C 2.938128 5.884758 17.474570
C 2.909681 4.475439 14.058015
