108
A
C 1.891571 0.630524 1.337543
C 1.891571 1.891571 2.229238
C 0.630524 1.891571 3.120932
C 0.630524 0.630524 0.445847
C 1.891571 0.630524 4.904323
C 1.891571 1.891571 5.796018
C 0.630524 1.891571 6.687712
C 0.630524 0.630524 4.012627
C 1.891571 0.630524 8.471103
C 1.891571 1.891571 9.362798
C 0.630524 1.891571 10.254492
C 0.630524 0.630524 7.579407
C 1.891571 3.152618 1.337543
C 1.891571 4.413665 2.229238
C 0.630524 4.413665 3.120933
C 0.630524 3.152618 0.445848
C 1.891571 3.152618 4.904323
C 1.891571 4.413665 5.796018
C 0.630524 4.413665 6.687712
C 0.630524 3.152618 4.012627
C 1.891571 3.152618 8.471103
C 1.891571 4.413665 9.362798
C 0.630524 4.413665 10.254492
C 0.630524 3.152618 7.579407
C 1.891571 5.674712 1.337543
C 1.891571 6.935759 2.229238
C 0.630524 6.935759 3.120933
C 0.630524 5.674712 0.445848
C 1.891571 5.674712 4.904323
C 1.891571 6.935759 5.796018
C 0.630524 6.935759 6.687713
C 0.630524 5.674712 4.012628
C 1.891571 5.674712 8.471103
C 1.891571 6.935759 9.362798
C 0.630524 6.935759 10.254493
C 0.630524 5.674712 7.579408
C 4.413665 0.630524 1.337543
C 4.413665 1.891571 2.229238
C 3.152618 1.891571 3.120932
C 3.152618 0.630524 0.445847
C 4.413665 0.630524 4.904323
C 4.413665 1.891571 5.796018
C 3.152618 1.891571 6.687712
C 3.152618 0.630524 4.012627
C 4.413665 0.630524 8.471103
C 4.413665 1.891571 9.362798
C 3.152618 1.891571 10.254492
C 3.152618 0.630524 7.579407
C 4.413665 3.152618 1.337543
C 4.413665 4.413665 2.229238
C 3.152618 4.413665 3.120933
C 3.152618 3.152618 0.445848
C 4.413665 3.152618 4.904323
C 4.413665 4.413665 5.796018
C 3.152618 4.413665 6.687712
C 3.152618 3.152618 4.012627
C 4.413665 3.152618 8.471103
C 4.413665 4.413665 9.362798
C 3.152618 4.413665 10.254492
C 3.152618 3.152618 7.579407
C 4.413665 5.674712 1.337543
C 4.413665 6.935759 2.229238
C 3.152618 6.935759 3.120933
C 3.152618 5.674712 0.445848
C 4.413665 5.674712 4.904323
C 4.413665 6.935759 5.796018
C 3.152618 6.935759 6.687713
C 3.152618 5.674712 4.012628
C 4.413665 5.674712 8.471103
C 4.413665 6.935759 9.362798
C 3.152618 6.935759 10.254493
C 3.152618 5.674712 7.579408
C 6.935759 0.630524 1.337543
C 6.935759 1.891571 2.229238
C 5.674712 1.891571 3.120932
C 5.674712 0.630524 0.445848
C 6.935759 0.630524 4.904323
C 6.935759 1.891571 5.796018
C 5.674712 1.891571 6.687712
C 5.674712 0.630524 4.012627
C 6.935759 0.630524 8.471103
C 6.935759 1.891571 9.362798
C 5.674712 1.891571 10.254492
C 5.674712 0.630524 7.579407
C 6.935759 3.152618 1.337543
C 6.935759 4.413665 2.229238
C 5.674712 4.413665 3.120933
C 5.674712 3.152618 0.445848
C 6.935759 3.152618 4.904323
C 6.935759 4.413665 5.796018
C 5.674712 4.413665 6.687712
C 5.674712 3.152618 4.012628
C 6.935759 3.152618 8.471103
C 6.935759 4.413665 9.362798
C 5.674712 4.413665 10.254492
C 5.674712 3.152618 7.579407
C 6.935759 5.674712 1.337543
C 6.935759 6.935759 2.229238
C 5.674712 6.935759 3.120933
C 5.674712 5.674712 0.445848
C 6.935759 5.674712 4.904323
C 6.935759 6.935759 5.796018
C 5.674712 6.935759 6.687713
C 5.674712 5.674712 4.012628
C 6.935759 5.674712 8.471103
C 6.935759 6.935759 9.362798
C 5.674712 6.935759 10.254493
C 5.674712 5.674712 7.579408
