108
A
C -0.061658 0.698550 3.847985
C 1.246456 1.493859 3.806820
C -0.786000 1.730297 1.490070
C 1.829379 0.376169 1.454496
C -0.061658 0.698550 8.506973
C 1.246456 1.493859 8.465808
C -0.786000 1.730297 6.149058
C 1.829379 0.376169 6.113484
C -0.061658 0.698550 13.165961
C 1.246456 1.493859 13.124796
C -0.786000 1.730297 10.808047
C 1.829379 0.376169 10.772472
C -1.368924 2.847987 3.847985
C -0.060811 3.643296 3.806820
C -2.093267 3.879734 1.490070
C 0.522113 2.525606 1.454496
C -1.368924 2.847987 8.506973
C -0.060811 3.643296 8.465808
C -2.093267 3.879734 6.149058
C 0.522113 2.525606 6.113484
C -1.368924 2.847987 13.165961
C -0.060811 3.643296 13.124796
C -2.093267 3.879734 10.808047
C 0.522113 2.525606 10.772472
C -2.676190 4.997424 3.847985
C -1.368077 5.792733 3.806820
C -3.400533 6.029172 1.490070
C -0.785153 4.675043 1.454496
C -2.676190 4.997424 8.506973
C -1.368077 5.792733 8.465808
C -3.400533 6.029172 6.149058
C -0.785153 4.675043 6.113484
C -2.676190 4.997424 13.165961
C -1.368077 5.792733 13.124796
C -3.400533 6.029172 10.808047
C -0.785153 4.675043 10.772472
C 2.359697 0.698550 4.488683
C 3.667811 1.493859 4.447518
C 1.635355 1.730297 2.130768
C 4.250734 0.376169 2.095194
C 2.359697 0.698550 9.147671
C 3.667811 1.493859 9.106506
C 1.635355 1.730297 6.789756
C 4.250734 0.376169 6.754182
C 2.359697 0.698550 13.806659
C 3.667811 1.493859 13.765494
C 1.635355 1.730297 11.448745
C 4.250734 0.376169 11.413170
C 1.052431 2.847987 4.488683
C 2.360544 3.643296 4.447518
C 0.328088 3.879734 2.130768
C 2.943468 2.525606 2.095194
C 1.052431 2.847987 9.147671
C 2.360544 3.643296 9.106506
C 0.328088 3.879734 6.789756
C 2.943468 2.525606 6.754182
C 1.052431 2.847987 13.806659
C 2.360544 3.643296 13.765494
C 0.328088 3.879734 11.448745
C 2.943468 2.525606 11.413170
C -0.254835 4.997424 4.488683
C 1.053278 5.792733 4.447518
C -0.979178 6.029172 2.130768
C 1.636202 4.675043 2.095194
C -0.254835 4.997424 9.147671
C 1.053278 5.792733 9.106506
C -0.979178 6.029172 6.789756
C 1.636202 4.675043 6.754182
C -0.254835 4.997424 13.806659
C 1.053278 5.792733 13.765494
C -0.979178 6.029172 11.448745
C 1.636202 4.675043 11.413170
C 4.781052 0.698550 5.129381
C 6.089166 1.493859 5.088216
C 4.056709 1.730297 2.771466
C 6.672089 0.376169 2.735892
C 4.781052 0.698550 9.788369
C 6.089166 1.493859 9.747204
C 4.056709 1.730297 7.430455
C 6.672089 0.376169 7.394880
C 4.781052 0.698550 14.447357
C 6.089166 1.493859 14.406192
C 4.056709 1.730297 12.089443
C 6.672089 0.376169 12.053868
C 3.473786 2.847987 5.129381
C 4.781899 3.643296 5.088216
C 2.749443 3.879734 2.771466
C 5.364823 2.525606 2.735892
C 3.473786 2.847987 9.788369
C 4.781899 3.643296 9.747204
C 2.749443 3.879734 7.430455
C 5.364823 2.525606 7.394880
C 3.473786 2.847987 14.447357
C 4.781899 3.643296 14.406192
C 2.749443 3.879734 12.089443
C 5.364823 2.525606 12.053868
C 2.166520 4.997424 5.129381
C 3.474633 5.792733 5.088216
C 1.442177 6.029172 2.771466
C 4.057556 4.675043 2.735892
C 2.166520 4.997424 9.788369
C 3.474633 5.792733 9.747204
C 1.442177 6.029172 7.430455
C 4.057556 4.675043 7.394880
C 2.166520 4.997424 14.447357
C 3.474633 5.792733 14.406192
C 1.442177 6.029172 12.089443
C 4.057556 4.675043 12.053868
