108
A
C 0.191798 0.832253 4.771335
C 1.450551 1.570544 4.677322
C -0.881235 1.642845 1.633026
C 1.634691 0.238877 1.583807
C 0.191798 0.832253 10.907502
C 1.450551 1.570544 10.813489
C -0.881235 1.642845 7.769192
C 1.634691 0.238877 7.719973
C 0.191798 0.832253 17.043669
C 1.450551 1.570544 16.949656
C -0.881235 1.642845 13.905359
C 1.634691 0.238877 13.856140
C -1.065375 2.974513 4.771335
C 0.193379 3.712804 4.677322
C -2.138408 3.785105 1.633026
C 0.377518 2.381137 1.583807
C -1.065375 2.974513 10.907502
C 0.193379 3.712804 10.813489
C -2.138408 3.785105 7.769192
C 0.377518 2.381137 7.719973
C -1.065375 2.974513 17.043669
C 0.193379 3.712804 16.949656
C -2.138408 3.785105 13.905359
C 0.377518 2.381137 13.856140
C -2.322547 5.116772 4.771335
C -1.063794 5.855064 4.677322
C -3.395581 5.927365 1.633026
C -0.879655 4.523396 1.583807
C -2.322547 5.116772 10.907502
C -1.063794 5.855064 10.813489
C -3.395581 5.927365 7.769192
C -0.879655 4.523396 7.719973
C -2.322547 5.116772 17.043669
C -1.063794 5.855064 16.949656
C -3.395581 5.927365 13.905359
C -0.879655 4.523396 13.856140
C 2.646873 0.832253 4.967913
C 3.905626 1.570544 4.873900
C 1.573839 1.642845 1.829603
C 4.089765 0.238877 1.780384
C 2.646873 0.832253 11.104080
C 3.905626 1.570544 11.010067
C 1.573839 1.642845 7.965770
C 4.089765 0.238877 7.916551
C 2.646873 0.832253 17.240246
C 3.905626 1.570544 17.146233
C 1.573839 1.642845 14.101937
C 4.089765 0.238877 14.052718
C 1.389700 2.974513 4.967913
C 2.648454 3.712804 4.873900
C 0.316667 3.785105 1.829603
C 2.832593 2.381137 1.780384
C 1.389700 2.974513 11.104080
C 2.648454 3.712804 11.010067
C 0.316667 3.785105 7.965770
C 2.832593 2.381137 7.916551
C 1.389700 2.974513 17.240246
C 2.648454 3.712804 17.146233
C 0.316667 3.785105 14.101937
C 2.832593 2.381137 14.052718
C 0.132527 5.116772 4.967913
C 1.391281 5.855064 4.873900
C -0.940506 5.927365 1.829603
C 1.575420 4.523396 1.780384
C 0.132527 5.116772 11.104080
C 1.391281 5.855064 11.010067
C -0.940506 5.927365 7.965770
C 1.575420 4.523396 7.916551
C 0.132527 5.116772 17.240246
C 1.391281 5.855064 17.146233
C -0.940506 5.927365 14.101937
C 1.575420 4.523396 14.052718
C 5.101947 0.832253 5.164491
C 6.360701 1.570544 5.070478
C 4.028914 1.642845 2.026181
C 6.544840 0.238877 1.976962
C 5.101947 0.832253 11.300657
C 6.360701 1.570544 11.206644
C 4.028914 1.642845 8.162348
C 6.544840 0.238877 8.113129
C 5.101947 0.832253 17.436824
C 6.360701 1.570544 17.342811
C 4.028914 1.642845 14.298515
C 6.544840 0.238877 14.249296
C 3.844775 2.974513 5.164491
C 5.103528 3.712804 5.070478
C 2.771742 3.785105 2.026181
C 5.287668 2.381137 1.976962
C 3.844775 2.974513 11.300657
C 5.103528 3.712804 11.206644
C 2.771742 3.785105 8.162348
C 5.287668 2.381137 8.113129
C 3.844775 2.974513 17.436824
C 5.103528 3.712804 17.342811
C 2.771742 3.785105 14.298515
C 5.287668 2.381137 14.249296
C 2.587602 5.116772 5.164491
C 3.846356 5.855064 5.070478
C 1.514569 5.927365 2.026181
C 4.030495 4.523396 1.976962
C 2.587602 5.116772 11.300657
C 3.846356 5.855064 11.206644
C 1.514569 5.927365 8.162348
C 4.030495 4.523396 8.113129
C 2.587602 5.116772 17.436824
C 3.846356 5.855064 17.342811
C 1.514569 5.927365 14.298515
C 4.030495 4.523396 14.249296
