108
A
C 1.302172 0.708348 1.712889
C 1.320445 2.124649 4.787021
C 0.048667 1.465206 4.962844
C 0.030394 0.048905 1.537066
C 1.302172 0.708348 8.212799
C 1.320445 2.124649 11.286932
C 0.048667 1.465206 11.462754
C 0.030394 0.048905 8.036976
C 1.302172 0.708348 14.712709
C 1.320445 2.124649 17.786842
C 0.048667 1.465206 17.962664
C 0.030394 0.048905 14.536887
C 0.178322 2.881902 1.712889
C 0.196595 4.298203 4.787021
C -1.075183 3.638759 4.962844
C -1.093456 2.222459 1.537066
C 0.178322 2.881902 8.212799
C 0.196595 4.298203 11.286932
C -1.075183 3.638759 11.462754
C -1.093456 2.222459 8.036976
C 0.178322 2.881902 14.712709
C 0.196595 4.298203 17.786842
C -1.075183 3.638759 17.962664
C -1.093456 2.222459 14.536887
C -0.945528 5.055456 1.712889
C -0.927255 6.471756 4.787021
C -2.199033 5.812313 4.962844
C -2.217306 4.396013 1.537066
C -0.945528 5.055456 8.212799
C -0.927255 6.471756 11.286932
C -2.199033 5.812313 11.462754
C -2.217306 4.396013 8.036976
C -0.945528 5.055456 14.712709
C -0.927255 6.471756 17.786842
C -2.199033 5.812313 17.962664
C -2.217306 4.396013 14.536887
C 3.776860 0.708348 1.712889
C 3.795133 2.124649 4.787021
C 2.523355 1.465206 4.962844
C 2.505082 0.048905 1.537066
C 3.776860 0.708348 8.212799
C 3.795133 2.124649 11.286932
C 2.523355 1.465206 11.462754
C 2.505082 0.048905 8.036976
C 3.776860 0.708348 14.712709
C 3.795133 2.124649 17.786842
C 2.523355 1.465206 17.962664
C 2.505082 0.048905 14.536887
C 2.653010 2.881902 1.712889
C 2.671283 4.298203 4.787021
C 1.399505 3.638759 4.962844
C 1.381232 2.222459 1.537066
C 2.653010 2.881902 8.212799
C 2.671283 4.298203 11.286932
C 1.399505 3.638759 11.462754
C 1.381232 2.222459 8.036976
C 2.653010 2.881902 14.712709
C 2.671283 4.298203 17.786842
C 1.399505 3.638759 17.962664
C 1.381232 2.222459 14.536887
C 1.529160 5.055456 1.712889
C 1.547433 6.471756 4.787021
C 0.275655 5.812313 4.962844
C 0.257382 4.396013 1.537066
C 1.529160 5.055456 8.212799
C 1.547433 6.471756 11.286932
C 0.275655 5.812313 11.462754
C 0.257382 4.396013 8.036976
C 1.529160 5.055456 14.712709
C 1.547433 6.471756 17.786842
C 0.275655 5.812313 17.962664
C 0.257382 4.396013 14.536887
C 6.251549 0.708348 1.712889
C 6.269822 2.124649 4.787021
C 4.998044 1.465206 4.962844
C 4.979771 0.048905 1.537066
C 6.251549 0.708348 8.212799
C 6.269822 2.124649 11.286932
C 4.998044 1.465206 11.462754
C 4.979771 0.048905 8.036976
C 6.251549 0.708348 14.712709
C 6.269822 2.124649 17.786842
C 4.998044 1.465206 17.962664
C 4.979771 0.048905 14.536887
C 5.127699 2.881902 1.712889
C 5.145972 4.298203 4.787021
C 3.874194 3.638759 4.962844
C 3.855921 2.222459 1.537066
C 5.127699 2.881902 8.212799
C 5.145972 4.298203 11.286932
C 3.874194 3.638759 11.462754
C 3.855921 2.222459 8.036976
C 5.127699 2.881902 14.712709
C 5.145972 4.298203 17.786842
C 3.874194 3.638759 17.962664
C 3.855921 2.222459 14.536887
C 4.003849 5.055456 1.712889
C 4.022122 6.471756 4.787021
C 2.750344 5.812313 4.962844
C 2.732071 4.396013 1.537066
C 4.003849 5.055456 8.212799
C 4.022122 6.471756 11.286932
C 2.750344 5.812313 11.462754
C 2.732071 4.396013 8.036976
C 4.003849 5.055456 14.712709
C 4.022122 6.471756 17.786842
C 2.750344 5.812313 17.962664
C 2.732071 4.396013 14.536887
