108
A
C 0.144989 0.808210 4.621162
C 1.413085 1.556756 4.517360
C -0.863400 1.658575 1.610899
C 1.670902 0.263567 1.543490
C 0.144989 0.808210 10.490952
C 1.413085 1.556756 10.387151
C -0.863400 1.658575 7.480689
C 1.670902 0.263567 7.413280
C 0.144989 0.808210 16.360742
C 1.413085 1.556756 16.256941
C -0.863400 1.658575 13.350479
C 1.670902 0.263567 13.283071
C -1.121217 2.951764 4.621162
C 0.146879 3.700310 4.517360
C -2.129606 3.802129 1.610899
C 0.404696 2.407121 1.543490
C -1.121217 2.951764 10.490952
C 0.146879 3.700310 10.387151
C -2.129606 3.802129 7.480689
C 0.404696 2.407121 7.413280
C -1.121217 2.951764 16.360742
C 0.146879 3.700310 16.256941
C -2.129606 3.802129 13.350479
C 0.404696 2.407121 13.283071
C -2.387423 5.095318 4.621162
C -1.119327 5.843864 4.517360
C -3.395811 5.945683 1.610899
C -0.861510 4.550675 1.543490
C -2.387423 5.095318 10.490952
C -1.119327 5.843864 10.387151
C -3.395811 5.945683 7.480689
C -0.861510 4.550675 7.413280
C -2.387423 5.095318 16.360742
C -1.119327 5.843864 16.256941
C -3.395811 5.945683 13.350479
C -0.861510 4.550675 13.283071
C 2.593983 0.808210 4.897827
C 3.862079 1.556756 4.794026
C 1.585595 1.658575 1.887564
C 4.119896 0.263567 1.820155
C 2.593983 0.808210 10.767617
C 3.862079 1.556756 10.663816
C 1.585595 1.658575 7.757354
C 4.119896 0.263567 7.689945
C 2.593983 0.808210 16.637407
C 3.862079 1.556756 16.533606
C 1.585595 1.658575 13.627144
C 4.119896 0.263567 13.559736
C 1.327778 2.951764 4.897827
C 2.595873 3.700310 4.794026
C 0.319389 3.802129 1.887564
C 2.853690 2.407121 1.820155
C 1.327778 2.951764 10.767617
C 2.595873 3.700310 10.663816
C 0.319389 3.802129 7.757354
C 2.853690 2.407121 7.689945
C 1.327778 2.951764 16.637407
C 2.595873 3.700310 16.533606
C 0.319389 3.802129 13.627144
C 2.853690 2.407121 13.559736
C 0.061572 5.095318 4.897827
C 1.329667 5.843864 4.794026
C -0.946817 5.945683 1.887564
C 1.587484 4.550675 1.820155
C 0.061572 5.095318 10.767617
C 1.329667 5.843864 10.663816
C -0.946817 5.945683 7.757354
C 1.587484 4.550675 7.689945
C 0.061572 5.095318 16.637407
C 1.329667 5.843864 16.533606
C -0.946817 5.945683 13.627144
C 1.587484 4.550675 13.559736
C 5.042978 0.808210 5.174492
C 6.311073 1.556756 5.070691
C 4.034589 1.658575 2.164229
C 6.568890 0.263567 2.096820
C 5.042978 0.808210 11.044282
C 6.311073 1.556756 10.940481
C 4.034589 1.658575 8.034019
C 6.568890 0.263567 7.966610
C 5.042978 0.808210 16.914072
C 6.311073 1.556756 16.810271
C 4.034589 1.658575 13.903809
C 6.568890 0.263567 13.836401
C 3.776772 2.951764 5.174492
C 5.044867 3.700310 5.070691
C 2.768383 3.802129 2.164229
C 5.302684 2.407121 2.096820
C 3.776772 2.951764 11.044282
C 5.044867 3.700310 10.940481
C 2.768383 3.802129 8.034019
C 5.302684 2.407121 7.966610
C 3.776772 2.951764 16.914072
C 5.044867 3.700310 16.810271
C 2.768383 3.802129 13.903809
C 5.302684 2.407121 13.836401
C 2.510566 5.095318 5.174492
C 3.778661 5.843864 5.070691
C 1.502177 5.945683 2.164229
C 4.036478 4.550675 2.096820
C 2.510566 5.095318 11.044282
C 3.778661 5.843864 10.940481
C 1.502177 5.945683 8.034019
C 4.036478 4.550675 7.966610
C 2.510566 5.095318 16.914072
C 3.778661 5.843864 16.810271
C 1.502177 5.945683 13.903809
C 4.036478 4.550675 13.836401
