108
A
C 1.265051 0.711091 1.714560
C 1.273619 2.132859 4.946511
C 0.021432 1.443312 5.045095
C 0.012865 0.021544 1.615976
C 1.265051 0.711091 8.375631
C 1.273619 2.132859 11.607583
C 0.021432 1.443312 11.706167
C 0.012865 0.021544 8.277047
C 1.265051 0.711091 15.036702
C 1.273619 2.132859 18.268654
C 0.021432 1.443312 18.367238
C 0.012865 0.021544 14.938118
C 0.079451 2.865494 1.714560
C 0.088019 4.287262 4.946511
C -1.164168 3.597715 5.045095
C -1.172735 2.175947 1.615976
C 0.079451 2.865494 8.375631
C 0.088019 4.287262 11.607583
C -1.164168 3.597715 11.706167
C -1.172735 2.175947 8.277047
C 0.079451 2.865494 15.036702
C 0.088019 4.287262 18.268654
C -1.164168 3.597715 18.367238
C -1.172735 2.175947 14.938118
C -1.106149 5.019897 1.714560
C -1.097581 6.441666 4.946511
C -2.349768 5.752119 5.045095
C -2.358335 4.330350 1.615976
C -1.106149 5.019897 8.375631
C -1.097581 6.441666 11.607583
C -2.349768 5.752119 11.706167
C -2.358335 4.330350 8.277047
C -1.106149 5.019897 15.036702
C -1.097581 6.441666 18.268654
C -2.349768 5.752119 18.367238
C -2.358335 4.330350 14.938118
C 3.737135 0.711091 1.714560
C 3.745703 2.132859 4.946511
C 2.493516 1.443312 5.045095
C 2.484949 0.021544 1.615976
C 3.737135 0.711091 8.375631
C 3.745703 2.132859 11.607583
C 2.493516 1.443312 11.706167
C 2.484949 0.021544 8.277047
C 3.737135 0.711091 15.036702
C 3.745703 2.132859 18.268654
C 2.493516 1.443312 18.367238
C 2.484949 0.021544 14.938118
C 2.551535 2.865494 1.714560
C 2.560103 4.287262 4.946511
C 1.307916 3.597715 5.045095
C 1.299349 2.175947 1.615976
C 2.551535 2.865494 8.375631
C 2.560103 4.287262 11.607583
C 1.307916 3.597715 11.706167
C 1.299349 2.175947 8.277047
C 2.551535 2.865494 15.036702
C 2.560103 4.287262 18.268654
C 1.307916 3.597715 18.367238
C 1.299349 2.175947 14.938118
C 1.365935 5.019897 1.714560
C 1.374503 6.441666 4.946511
C 0.122316 5.752119 5.045095
C 0.113749 4.330350 1.615976
C 1.365935 5.019897 8.375631
C 1.374503 6.441666 11.607583
C 0.122316 5.752119 11.706167
C 0.113749 4.330350 8.277047
C 1.365935 5.019897 15.036702
C 1.374503 6.441666 18.268654
C 0.122316 5.752119 18.367238
C 0.113749 4.330350 14.938118
C 6.209219 0.711091 1.714560
C 6.217786 2.132859 4.946511
C 4.965600 1.443312 5.045095
C 4.957032 0.021544 1.615976
C 6.209219 0.711091 8.375631
C 6.217786 2.132859 11.607583
C 4.965600 1.443312 11.706167
C 4.957032 0.021544 8.277047
C 6.209219 0.711091 15.036702
C 6.217786 2.132859 18.268654
C 4.965600 1.443312 18.367238
C 4.957032 0.021544 14.938118
C 5.023619 2.865494 1.714560
C 5.032186 4.287262 4.946511
C 3.780000 3.597715 5.045095
C 3.771432 2.175947 1.615976
C 5.023619 2.865494 8.375631
C 5.032186 4.287262 11.607583
C 3.780000 3.597715 11.706167
C 3.771432 2.175947 8.277047
C 5.023619 2.865494 15.036702
C 5.032186 4.287262 18.268654
C 3.780000 3.597715 18.367238
C 3.771432 2.175947 14.938118
C 3.838019 5.019897 1.714560
C 3.846586 6.441666 4.946511
C 2.594400 5.752119 5.045095
C 2.585832 4.330350 1.615976
C 3.838019 5.019897 8.375631
C 3.846586 6.441666 11.607583
C 2.594400 5.752119 11.706167
C 2.585832 4.330350 8.277047
C 3.838019 5.019897 15.036702
C 3.846586 6.441666 18.268654
C 2.594400 5.752119 18.367238
C 2.585832 4.330350 14.938118
