108
A
C 0.308750 0.891142 5.109475
C 1.543750 1.604312 5.075525
C -0.926250 1.604312 1.680525
C 1.543750 0.178400 1.714475
C 0.308750 0.891142 11.899475
C 1.543750 1.604312 11.865525
C -0.926250 1.604312 8.470525
C 1.543750 0.178400 8.504475
C 0.308750 0.891142 18.689475
C 1.543750 1.604312 18.655525
C -0.926250 1.604312 15.260525
C 1.543750 0.178400 15.294475
C -0.926250 3.030225 5.109475
C 0.308750 3.743395 5.075525
C -2.161250 3.743395 1.680525
C 0.308750 2.317482 1.714475
C -0.926250 3.030225 11.899475
C 0.308750 3.743395 11.865525
C -2.161250 3.743395 8.470525
C 0.308750 2.317482 8.504475
C -0.926250 3.030225 18.689475
C 0.308750 3.743395 18.655525
C -2.161250 3.743395 15.260525
C 0.308750 2.317482 15.294475
C -2.161250 5.169307 5.109475
C -0.926250 5.882478 5.075525
C -3.396250 5.882478 1.680525
C -0.926250 4.456565 1.714475
C -2.161250 5.169307 11.899475
C -0.926250 5.882478 11.865525
C -3.396250 5.882478 8.470525
C -0.926250 4.456565 8.504475
C -2.161250 5.169307 18.689475
C -0.926250 5.882478 18.655525
C -3.396250 5.882478 15.260525
C -0.926250 4.456565 15.294475
C 2.778750 0.891142 5.109475
C 4.013750 1.604312 5.075525
C 1.543750 1.604312 1.680525
C 4.013750 0.178400 1.714475
C 2.778750 0.891142 11.899475
C 4.013750 1.604312 11.865525
C 1.543750 1.604312 8.470525
C 4.013750 0.178400 8.504475
C 2.778750 0.891142 18.689475
C 4.013750 1.604312 18.655525
C 1.543750 1.604312 15.260525
C 4.013750 0.178400 15.294475
C 1.543750 3.030225 5.109475
C 2.778750 3.743395 5.075525
C 0.308750 3.743395 1.680525
C 2.778750 2.317482 1.714475
C 1.543750 3.030225 11.899475
C 2.778750 3.743395 11.865525
C 0.308750 3.743395 8.470525
C 2.778750 2.317482 8.504475
C 1.543750 3.030225 18.689475
C 2.778750 3.743395 18.655525
C 0.308750 3.743395 15.260525
C 2.778750 2.317482 15.294475
C 0.308750 5.169307 5.109475
C 1.543750 5.882478 5.075525
C -0.926250 5.882478 1.680525
C 1.543750 4.456565 1.714475
C 0.308750 5.169307 11.899475
C 1.543750 5.882478 11.865525
C -0.926250 5.882478 8.470525
C 1.543750 4.456565 8.504475
C 0.308750 5.169307 18.689475
C 1.543750 5.882478 18.655525
C -0.926250 5.882478 15.260525
C 1.543750 4.456565 15.294475
C 5.248750 0.891142 5.109475
C 6.483750 1.604312 5.075525
C 4.013750 1.604312 1.680525
C 6.483750 0.178400 1.714475
C 5.248750 0.891142 11.899475
C 6.483750 1.604312 11.865525
C 4.013750 1.604312 8.470525
C 6.483750 0.178400 8.504475
C 5.248750 0.891142 18.689475
C 6.483750 1.604312 18.655525
C 4.013750 1.604312 15.260525
C 6.483750 0.178400 15.294475
C 4.013750 3.030225 5.109475
C 5.248750 3.743395 5.075525
C 2.778750 3.743395 1.680525
C 5.248750 2.317482 1.714475
C 4.013750 3.030225 11.899475
C 5.248750 3.743395 11.865525
C 2.778750 3.743395 8.470525
C 5.248750 2.317482 8.504475
C 4.013750 3.030225 18.689475
C 5.248750 3.743395 18.655525
C 2.778750 3.743395 15.260525
C 5.248750 2.317482 15.294475
C 2.778750 5.169307 5.109475
C 4.013750 5.882478 5.075525
C 1.543750 5.882478 1.680525
C 4.013750 4.456565 1.714475
C 2.778750 5.169307 11.899475
C 4.013750 5.882478 11.865525
C 1.543750 5.882478 8.470525
C 4.013750 4.456565 8.504475
C 2.778750 5.169307 18.689475
C 4.013750 5.882478 18.655525
C 1.543750 5.882478 15.260525
C 4.013750 4.456565 15.294475
