108
A
C 0.086117 0.777567 4.419639
C 1.365822 1.539182 4.315673
C -0.841121 1.678620 1.580413
C 1.716287 0.295034 1.502995
C 0.086117 0.777567 9.950404
C 1.365822 1.539182 9.846439
C -0.841121 1.678620 7.111179
C 1.716287 0.295034 7.033761
C 0.086117 0.777567 15.481170
C 1.365822 1.539182 15.377204
C -0.841121 1.678620 12.641944
C 1.716287 0.295034 12.564526
C -1.191586 2.922768 4.419639
C 0.088119 3.684383 4.315673
C -2.118824 3.823821 1.580413
C 0.438584 2.440235 1.502995
C -1.191586 2.922768 9.950404
C 0.088119 3.684383 9.846439
C -2.118824 3.823821 7.111179
C 0.438584 2.440235 7.033761
C -1.191586 2.922768 15.481170
C 0.088119 3.684383 15.377204
C -2.118824 3.823821 12.641944
C 0.438584 2.440235 12.564526
C -2.469289 5.067970 4.419639
C -1.189584 5.829585 4.315673
C -3.396527 5.969023 1.580413
C -0.839119 4.585437 1.502995
C -2.469289 5.067970 9.950404
C -1.189584 5.829585 9.846439
C -3.396527 5.969023 7.111179
C -0.839119 4.585437 7.033761
C -2.469289 5.067970 15.481170
C -1.189584 5.829585 15.377204
C -3.396527 5.969023 12.641944
C -0.839119 4.585437 12.564526
C 2.527372 0.777567 4.798233
C 3.807077 1.539182 4.694267
C 1.600134 1.678620 1.959007
C 4.157542 0.295034 1.881589
C 2.527372 0.777567 10.328999
C 3.807077 1.539182 10.225033
C 1.600134 1.678620 7.489773
C 4.157542 0.295034 7.412355
C 2.527372 0.777567 15.859764
C 3.807077 1.539182 15.755799
C 1.600134 1.678620 13.020539
C 4.157542 0.295034 12.943121
C 1.249669 2.922768 4.798233
C 2.529374 3.684383 4.694267
C 0.322431 3.823821 1.959007
C 2.879839 2.440235 1.881589
C 1.249669 2.922768 10.328999
C 2.529374 3.684383 10.225033
C 0.322431 3.823821 7.489773
C 2.879839 2.440235 7.412355
C 1.249669 2.922768 15.859764
C 2.529374 3.684383 15.755799
C 0.322431 3.823821 13.020539
C 2.879839 2.440235 12.943121
C -0.028034 5.067970 4.798233
C 1.251671 5.829585 4.694267
C -0.955271 5.969023 1.959007
C 1.602136 4.585437 1.881589
C -0.028034 5.067970 10.328999
C 1.251671 5.829585 10.225033
C -0.955271 5.969023 7.489773
C 1.602136 4.585437 7.412355
C -0.028034 5.067970 15.859764
C 1.251671 5.829585 15.755799
C -0.955271 5.969023 13.020539
C 1.602136 4.585437 12.943121
C 4.968627 0.777567 5.176827
C 6.248332 1.539182 5.072862
C 4.041389 1.678620 2.337602
C 6.598797 0.295034 2.260184
C 4.968627 0.777567 10.707593
C 6.248332 1.539182 10.603627
C 4.041389 1.678620 7.868367
C 6.598797 0.295034 7.790949
C 4.968627 0.777567 16.238359
C 6.248332 1.539182 16.134393
C 4.041389 1.678620 13.399133
C 6.598797 0.295034 13.321715
C 3.690924 2.922768 5.176827
C 4.970629 3.684383 5.072862
C 2.763687 3.823821 2.337602
C 5.321094 2.440235 2.260184
C 3.690924 2.922768 10.707593
C 4.970629 3.684383 10.603627
C 2.763687 3.823821 7.868367
C 5.321094 2.440235 7.790949
C 3.690924 2.922768 16.238359
C 4.970629 3.684383 16.134393
C 2.763687 3.823821 13.399133
C 5.321094 2.440235 13.321715
C 2.413222 5.067970 5.176827
C 3.692927 5.829585 5.072862
C 1.485984 5.969023 2.337602
C 4.043391 4.585437 2.260184
C 2.413222 5.067970 10.707593
C 3.692927 5.829585 10.603627
C 1.485984 5.969023 7.868367
C 4.043391 4.585437 7.790949
C 2.413222 5.067970 16.238359
C 3.692927 5.829585 16.134393
C 1.485984 5.969023 13.399133
C 4.043391 4.585437 13.321715
