108
A
C 0.111252 0.790705 4.507431
C 1.386020 1.546717 4.401850
C -0.850611 1.670026 1.593797
C 1.696932 0.281542 1.518867
C 0.111252 0.790705 10.183493
C 1.386020 1.546717 10.077912
C -0.850611 1.670026 7.269859
C 1.696932 0.281542 7.194928
C 0.111252 0.790705 15.859555
C 1.386020 1.546717 15.753974
C -0.850611 1.670026 12.945921
C 1.696932 0.281542 12.870990
C -1.161524 2.935201 4.507431
C 0.113244 3.691213 4.401850
C -2.123387 3.814521 1.593797
C 0.424157 2.426038 1.518867
C -1.161524 2.935201 10.183493
C 0.113244 3.691213 10.077912
C -2.123387 3.814521 7.269859
C 0.424157 2.426038 7.194928
C -1.161524 2.935201 15.859555
C 0.113244 3.691213 15.753974
C -2.123387 3.814521 12.945921
C 0.424157 2.426038 12.870990
C -2.434299 5.079696 4.507431
C -1.159532 5.835708 4.401850
C -3.396162 5.959016 1.593797
C -0.848619 4.570533 1.518867
C -2.434299 5.079696 10.183493
C -1.159532 5.835708 10.077912
C -3.396162 5.959016 7.269859
C -0.848619 4.570533 7.194928
C -2.434299 5.079696 15.859555
C -1.159532 5.835708 15.753974
C -3.396162 5.959016 12.945921
C -0.848619 4.570533 12.870990
C 2.555824 0.790705 4.842341
C 3.830591 1.546717 4.736760
C 1.593961 1.670026 1.928707
C 4.141504 0.281542 1.853777
C 2.555824 0.790705 10.518403
C 3.830591 1.546717 10.412822
C 1.593961 1.670026 7.604769
C 4.141504 0.281542 7.529839
C 2.555824 0.790705 16.194465
C 3.830591 1.546717 16.088884
C 1.593961 1.670026 13.280831
C 4.141504 0.281542 13.205901
C 1.283048 2.935201 4.842341
C 2.557816 3.691213 4.736760
C 0.321185 3.814521 1.928707
C 2.868729 2.426038 1.853777
C 1.283048 2.935201 10.518403
C 2.557816 3.691213 10.412822
C 0.321185 3.814521 7.604769
C 2.868729 2.426038 7.529839
C 1.283048 2.935201 16.194465
C 2.557816 3.691213 16.088884
C 0.321185 3.814521 13.280831
C 2.868729 2.426038 13.205901
C 0.010272 5.079696 4.842341
C 1.285040 5.835708 4.736760
C -0.951590 5.959016 1.928707
C 1.595953 4.570533 1.853777
C 0.010272 5.079696 10.518403
C 1.285040 5.835708 10.412822
C -0.951590 5.959016 7.604769
C 1.595953 4.570533 7.529839
C 0.010272 5.079696 16.194465
C 1.285040 5.835708 16.088884
C -0.951590 5.959016 13.280831
C 1.595953 4.570533 13.205901
C 5.000395 0.790705 5.177252
C 6.275163 1.546717 5.071671
C 4.038533 1.670026 2.263618
C 6.586076 0.281542 2.188687
C 5.000395 0.790705 10.853314
C 6.275163 1.546717 10.747733
C 4.038533 1.670026 7.939680
C 6.586076 0.281542 7.864749
C 5.000395 0.790705 16.529376
C 6.275163 1.546717 16.423794
C 4.038533 1.670026 13.615741
C 6.586076 0.281542 13.540811
C 3.727620 2.935201 5.177252
C 5.002388 3.691213 5.071671
C 2.765757 3.814521 2.263618
C 5.313301 2.426038 2.188687
C 3.727620 2.935201 10.853314
C 5.002388 3.691213 10.747733
C 2.765757 3.814521 7.939680
C 5.313301 2.426038 7.864749
C 3.727620 2.935201 16.529376
C 5.002388 3.691213 16.423794
C 2.765757 3.814521 13.615741
C 5.313301 2.426038 13.540811
C 2.454844 5.079696 5.177252
C 3.729612 5.835708 5.071671
C 1.492982 5.959016 2.263618
C 4.040525 4.570533 2.188687
C 2.454844 5.079696 10.853314
C 3.729612 5.835708 10.747733
C 1.492982 5.959016 7.939680
C 4.040525 4.570533 7.864749
C 2.454844 5.079696 16.529376
C 3.729612 5.835708 16.423794
C 1.492982 5.959016 13.615741
C 4.040525 4.570533 13.540811
