108
A
C 1.709137 0.662977 1.538849
C 1.756861 1.988781 3.027129
C 0.413958 1.740384 3.821838
C 0.366234 0.414580 0.744140
C 1.709137 0.662977 6.104827
C 1.756861 1.988781 7.593108
C 0.413958 1.740384 8.387816
C 0.366234 0.414580 5.310118
C 1.709137 0.662977 10.670805
C 1.756861 1.988781 12.159086
C 0.413958 1.740384 12.953794
C 0.366234 0.414580 9.876097
C 1.326287 3.066337 1.538849
C 1.374011 4.392142 3.027129
C 0.031108 4.143745 3.821838
C -0.016616 2.817940 0.744140
C 1.326287 3.066337 6.104827
C 1.374011 4.392142 7.593108
C 0.031108 4.143745 8.387816
C -0.016616 2.817940 5.310118
C 1.326287 3.066337 10.670805
C 1.374011 4.392142 12.159086
C 0.031108 4.143745 12.953794
C -0.016616 2.817940 9.876097
C 0.943437 5.469698 1.538849
C 0.991161 6.795502 3.027129
C -0.351742 6.547106 3.821838
C -0.399466 5.221301 0.744140
C 0.943437 5.469698 6.104827
C 0.991161 6.795502 7.593108
C -0.351742 6.547106 8.387816
C -0.399466 5.221301 5.310118
C 0.943437 5.469698 10.670805
C 0.991161 6.795502 12.159086
C -0.351742 6.547106 12.953794
C -0.399466 5.221301 9.876097
C 4.215082 0.662977 1.538849
C 4.262806 1.988781 3.027129
C 2.919903 1.740384 3.821838
C 2.872179 0.414580 0.744140
C 4.215082 0.662977 6.104827
C 4.262806 1.988781 7.593108
C 2.919903 1.740384 8.387816
C 2.872179 0.414580 5.310118
C 4.215082 0.662977 10.670805
C 4.262806 1.988781 12.159086
C 2.919903 1.740384 12.953794
C 2.872179 0.414580 9.876097
C 3.832232 3.066337 1.538849
C 3.879956 4.392142 3.027129
C 2.537053 4.143745 3.821838
C 2.489329 2.817940 0.744140
C 3.832232 3.066337 6.104827
C 3.879956 4.392142 7.593108
C 2.537053 4.143745 8.387816
C 2.489329 2.817940 5.310118
C 3.832232 3.066337 10.670805
C 3.879956 4.392142 12.159086
C 2.537053 4.143745 12.953794
C 2.489329 2.817940 9.876097
C 3.449382 5.469698 1.538849
C 3.497106 6.795502 3.027129
C 2.154203 6.547106 3.821838
C 2.106479 5.221301 0.744140
C 3.449382 5.469698 6.104827
C 3.497106 6.795502 7.593108
C 2.154203 6.547106 8.387816
C 2.106479 5.221301 5.310118
C 3.449382 5.469698 10.670805
C 3.497106 6.795502 12.159086
C 2.154203 6.547106 12.953794
C 2.106479 5.221301 9.876097
C 6.721027 0.662977 1.538849
C 6.768751 1.988781 3.027129
C 5.425848 1.740384 3.821838
C 5.378124 0.414580 0.744140
C 6.721027 0.662977 6.104827
C 6.768751 1.988781 7.593108
C 5.425848 1.740384 8.387816
C 5.378124 0.414580 5.310118
C 6.721027 0.662977 10.670805
C 6.768751 1.988781 12.159086
C 5.425848 1.740384 12.953794
C 5.378124 0.414580 9.876097
C 6.338177 3.066337 1.538849
C 6.385901 4.392142 3.027129
C 5.042998 4.143745 3.821838
C 4.995274 2.817940 0.744140
C 6.338177 3.066337 6.104827
C 6.385901 4.392142 7.593108
C 5.042998 4.143745 8.387816
C 4.995274 2.817940 5.310118
C 6.338177 3.066337 10.670805
C 6.385901 4.392142 12.159086
C 5.042998 4.143745 12.953794
C 4.995274 2.817940 9.876097
C 5.955327 5.469698 1.538849
C 6.003051 6.795502 3.027129
C 4.660148 6.547106 3.821838
C 4.612424 5.221301 0.744140
C 5.955327 5.469698 6.104827
C 6.003051 6.795502 7.593108
C 4.660148 6.547106 8.387816
C 4.612424 5.221301 5.310118
C 5.955327 5.469698 10.670805
C 6.003051 6.795502 12.159086
C 4.660148 6.547106 12.953794
C 4.612424 5.221301 9.876097
