108
A
C 1.389247 0.701114 1.700824
C 1.426262 2.102991 4.412300
C 0.116042 1.518401 4.757386
C 0.079028 0.116525 1.355738
C 1.389247 0.701114 7.813948
C 1.426262 2.102991 10.525424
C 0.116042 1.518401 10.870510
C 0.079028 0.116525 7.468862
C 1.389247 0.701114 13.927071
C 1.426262 2.102991 16.638548
C 0.116042 1.518401 16.983633
C 0.079028 0.116525 13.581986
C 0.413597 2.920629 1.700824
C 0.450612 4.322506 4.412300
C -0.859608 3.737917 4.757386
C -0.896622 2.336040 1.355738
C 0.413597 2.920629 7.813948
C 0.450612 4.322506 10.525424
C -0.859608 3.737917 10.870510
C -0.896622 2.336040 7.468862
C 0.413597 2.920629 13.927071
C 0.450612 4.322506 16.638548
C -0.859608 3.737917 16.983633
C -0.896622 2.336040 13.581986
C -0.562053 5.140144 1.700824
C -0.525038 6.542021 4.412300
C -1.835258 5.957432 4.757386
C -1.872272 4.555555 1.355738
C -0.562053 5.140144 7.813948
C -0.525038 6.542021 10.525424
C -1.835258 5.957432 10.870510
C -1.872272 4.555555 7.468862
C -0.562053 5.140144 13.927071
C -0.525038 6.542021 16.638548
C -1.835258 5.957432 16.983633
C -1.872272 4.555555 13.581986
C 3.870187 0.701114 1.700824
C 3.907202 2.102991 4.412300
C 2.596982 1.518401 4.757386
C 2.559968 0.116525 1.355738
C 3.870187 0.701114 7.813948
C 3.907202 2.102991 10.525424
C 2.596982 1.518401 10.870510
C 2.559968 0.116525 7.468862
C 3.870187 0.701114 13.927071
C 3.907202 2.102991 16.638548
C 2.596982 1.518401 16.983633
C 2.559968 0.116525 13.581986
C 2.894537 2.920629 1.700824
C 2.931552 4.322506 4.412300
C 1.621332 3.737917 4.757386
C 1.584318 2.336040 1.355738
C 2.894537 2.920629 7.813948
C 2.931552 4.322506 10.525424
C 1.621332 3.737917 10.870510
C 1.584318 2.336040 7.468862
C 2.894537 2.920629 13.927071
C 2.931552 4.322506 16.638548
C 1.621332 3.737917 16.983633
C 1.584318 2.336040 13.581986
C 1.918887 5.140144 1.700824
C 1.955902 6.542021 4.412300
C 0.645682 5.957432 4.757386
C 0.608668 4.555555 1.355738
C 1.918887 5.140144 7.813948
C 1.955902 6.542021 10.525424
C 0.645682 5.957432 10.870510
C 0.608668 4.555555 7.468862
C 1.918887 5.140144 13.927071
C 1.955902 6.542021 16.638548
C 0.645682 5.957432 16.983633
C 0.608668 4.555555 13.581986
C 6.351127 0.701114 1.700824
C 6.388142 2.102991 4.412300
C 5.077922 1.518401 4.757386
C 5.040907 0.116525 1.355738
C 6.351127 0.701114 7.813948
C 6.388142 2.102991 10.525424
C 5.077922 1.518401 10.870510
C 5.040907 0.116525 7.468862
C 6.351127 0.701114 13.927071
C 6.388142 2.102991 16.638548
C 5.077922 1.518401 16.983633
C 5.040907 0.116525 13.581986
C 5.375477 2.920629 1.700824
C 5.412492 4.322506 4.412300
C 4.102272 3.737917 4.757386
C 4.065257 2.336040 1.355738
C 5.375477 2.920629 7.813948
C 5.412492 4.322506 10.525424
C 4.102272 3.737917 10.870510
C 4.065257 2.336040 7.468862
C 5.375477 2.920629 13.927071
C 5.412492 4.322506 16.638548
C 4.102272 3.737917 16.983633
C 4.065257 2.336040 13.581986
C 4.399827 5.140144 1.700824
C 4.436842 6.542021 4.412300
C 3.126622 5.957432 4.757386
C 3.089607 4.555555 1.355738
C 4.399827 5.140144 7.813948
C 4.436842 6.542021 10.525424
C 3.126622 5.957432 10.870510
C 3.089607 4.555555 7.468862
C 4.399827 5.140144 13.927071
C 4.436842 6.542021 16.638548
C 3.126622 5.957432 16.983633
C 3.089607 4.555555 13.581986
