108
A
C 1.250065 0.712143 1.714675
C 1.254438 2.136009 5.010860
C 0.010677 1.434600 5.077443
C 0.006304 0.010734 1.648092
C 1.250065 0.712143 8.440211
C 1.254438 2.136009 11.736396
C 0.010677 1.434600 11.802979
C 0.006304 0.010734 8.373628
C 1.250065 0.712143 15.165747
C 1.254438 2.136009 18.461931
C 0.010677 1.434600 18.528514
C 0.006304 0.010734 15.099164
C 0.039765 2.858886 1.714675
C 0.044138 4.282752 5.010860
C -1.199623 3.581343 5.077443
C -1.203996 2.157477 1.648092
C 0.039765 2.858886 8.440211
C 0.044138 4.282752 11.736396
C -1.199623 3.581343 11.802979
C -1.203996 2.157477 8.373628
C 0.039765 2.858886 15.165747
C 0.044138 4.282752 18.461931
C -1.199623 3.581343 18.528514
C -1.203996 2.157477 15.099164
C -1.170535 5.005629 1.714675
C -1.166162 6.429495 5.010860
C -2.409923 5.728086 5.077443
C -2.414296 4.304220 1.648092
C -1.170535 5.005629 8.440211
C -1.166162 6.429495 11.736396
C -2.409923 5.728086 11.802979
C -2.414296 4.304220 8.373628
C -1.170535 5.005629 15.165747
C -1.166162 6.429495 18.461931
C -2.409923 5.728086 18.528514
C -2.414296 4.304220 15.099164
C 3.721107 0.712143 1.714675
C 3.725480 2.136009 5.010860
C 2.481719 1.434600 5.077443
C 2.477346 0.010734 1.648092
C 3.721107 0.712143 8.440211
C 3.725480 2.136009 11.736396
C 2.481719 1.434600 11.802979
C 2.477346 0.010734 8.373628
C 3.721107 0.712143 15.165747
C 3.725480 2.136009 18.461931
C 2.481719 1.434600 18.528514
C 2.477346 0.010734 15.099164
C 2.510807 2.858886 1.714675
C 2.515180 4.282752 5.010860
C 1.271419 3.581343 5.077443
C 1.267046 2.157477 1.648092
C 2.510807 2.858886 8.440211
C 2.515180 4.282752 11.736396
C 1.271419 3.581343 11.802979
C 1.267046 2.157477 8.373628
C 2.510807 2.858886 15.165747
C 2.515180 4.282752 18.461931
C 1.271419 3.581343 18.528514
C 1.267046 2.157477 15.099164
C 1.300507 5.005629 1.714675
C 1.304880 6.429495 5.010860
C 0.061119 5.728086 5.077443
C 0.056746 4.304220 1.648092
C 1.300507 5.005629 8.440211
C 1.304880 6.429495 11.736396
C 0.061119 5.728086 11.802979
C 0.056746 4.304220 8.373628
C 1.300507 5.005629 15.165747
C 1.304880 6.429495 18.461931
C 0.061119 5.728086 18.528514
C 0.056746 4.304220 15.099164
C 6.192149 0.712143 1.714675
C 6.196522 2.136009 5.010860
C 4.952761 1.434600 5.077443
C 4.948387 0.010734 1.648092
C 6.192149 0.712143 8.440211
C 6.196522 2.136009 11.736396
C 4.952761 1.434600 11.802979
C 4.948387 0.010734 8.373628
C 6.192149 0.712143 15.165747
C 6.196522 2.136009 18.461931
C 4.952761 1.434600 18.528514
C 4.948387 0.010734 15.099164
C 4.981849 2.858886 1.714675
C 4.986222 4.282752 5.010860
C 3.742461 3.581343 5.077443
C 3.738087 2.157477 1.648092
C 4.981849 2.858886 8.440211
C 4.986222 4.282752 11.736396
C 3.742461 3.581343 11.802979
C 3.738087 2.157477 8.373628
C 4.981849 2.858886 15.165747
C 4.986222 4.282752 18.461931
C 3.742461 3.581343 18.528514
C 3.738087 2.157477 15.099164
C 3.771549 5.005629 1.714675
C 3.775922 6.429495 5.010860
C 2.532161 5.728086 5.077443
C 2.527787 4.304220 1.648092
C 3.771549 5.005629 8.440211
C 3.775922 6.429495 11.736396
C 2.532161 5.728086 11.802979
C 2.527787 4.304220 8.373628
C 3.771549 5.005629 15.165747
C 3.775922 6.429495 18.461931
C 2.532161 5.728086 18.528514
C 2.527787 4.304220 15.099164
