108
A
C 0.036281 0.751263 4.237640
C 1.325686 1.524095 4.144492
C -0.822401 1.695825 1.552211
C 1.754562 0.322044 1.477928
C 0.036281 0.751263 9.477813
C 1.325686 1.524095 9.384665
C -0.822401 1.695825 6.792384
C 1.754562 0.322044 6.718101
C 0.036281 0.751263 14.717986
C 1.325686 1.524095 14.624838
C -0.822401 1.695825 12.032557
C 1.754562 0.322044 11.958274
C -1.251276 2.897876 4.237640
C 0.038129 3.670709 4.144492
C -2.109958 3.842438 1.552211
C 0.467005 2.468657 1.477928
C -1.251276 2.897876 9.477813
C 0.038129 3.670709 9.384665
C -2.109958 3.842438 6.792384
C 0.467005 2.468657 6.718101
C -1.251276 2.897876 14.717986
C 0.038129 3.670709 14.624838
C -2.109958 3.842438 12.032557
C 0.467005 2.468657 11.958274
C -2.538834 5.044490 4.237640
C -1.249428 5.817322 4.144492
C -3.397515 5.989051 1.552211
C -0.820553 4.615270 1.477928
C -2.538834 5.044490 9.477813
C -1.249428 5.817322 9.384665
C -3.397515 5.989051 6.792384
C -0.820553 4.615270 6.718101
C -2.538834 5.044490 14.717986
C -1.249428 5.817322 14.624838
C -3.397515 5.989051 12.032557
C -0.820553 4.615270 11.958274
C 2.470903 0.751263 4.703602
C 3.760308 1.524095 4.610454
C 1.612221 1.695825 2.018173
C 4.189184 0.322044 1.943890
C 2.470903 0.751263 9.943775
C 3.760308 1.524095 9.850627
C 1.612221 1.695825 7.258346
C 4.189184 0.322044 7.184063
C 2.470903 0.751263 15.183948
C 3.760308 1.524095 15.090800
C 1.612221 1.695825 12.498519
C 4.189184 0.322044 12.424236
C 1.183345 2.897876 4.703602
C 2.472751 3.670709 4.610454
C 0.324664 3.842438 2.018173
C 2.901627 2.468657 1.943890
C 1.183345 2.897876 9.943775
C 2.472751 3.670709 9.850627
C 0.324664 3.842438 7.258346
C 2.901627 2.468657 7.184063
C 1.183345 2.897876 15.183948
C 2.472751 3.670709 15.090800
C 0.324664 3.842438 12.498519
C 2.901627 2.468657 12.424236
C -0.104212 5.044490 4.703602
C 1.185193 5.817322 4.610454
C -0.962893 5.989051 2.018173
C 1.614069 4.615270 1.943890
C -0.104212 5.044490 9.943775
C 1.185193 5.817322 9.850627
C -0.962893 5.989051 7.258346
C 1.614069 4.615270 7.184063
C -0.104212 5.044490 15.183948
C 1.185193 5.817322 15.090800
C -0.962893 5.989051 12.498519
C 1.614069 4.615270 12.424236
C 4.905524 0.751263 5.169564
C 6.194930 1.524095 5.076416
C 4.046843 1.695825 2.484135
C 6.623806 0.322044 2.409852
C 4.905524 0.751263 10.409737
C 6.194930 1.524095 10.316589
C 4.046843 1.695825 7.724309
C 6.623806 0.322044 7.650025
C 4.905524 0.751263 15.649910
C 6.194930 1.524095 15.556763
C 4.046843 1.695825 12.964482
C 6.623806 0.322044 12.890198
C 3.617967 2.897876 5.169564
C 4.907372 3.670709 5.076416
C 2.759286 3.842438 2.484135
C 5.336248 2.468657 2.409852
C 3.617967 2.897876 10.409737
C 4.907372 3.670709 10.316589
C 2.759286 3.842438 7.724309
C 5.336248 2.468657 7.650025
C 3.617967 2.897876 15.649910
C 4.907372 3.670709 15.556763
C 2.759286 3.842438 12.964482
C 5.336248 2.468657 12.890198
C 2.330410 5.044490 5.169564
C 3.619815 5.817322 5.076416
C 1.471728 5.989051 2.484135
C 4.048691 4.615270 2.409852
C 2.330410 5.044490 10.409737
C 3.619815 5.817322 10.316589
C 1.471728 5.989051 7.724309
C 4.048691 4.615270 7.650025
C 2.330410 5.044490 15.649910
C 3.619815 5.817322 15.556763
C 1.471728 5.989051 12.964482
C 4.048691 4.615270 12.890198
