108
A
C 0.019797 0.742487 4.175073
C 1.312385 1.519062 4.087779
C -0.816238 1.701564 1.542385
C 1.767192 0.331055 1.471550
C 0.019797 0.742487 9.318382
C 1.312385 1.519062 9.231088
C -0.816238 1.701564 6.685694
C 1.767192 0.331055 6.614859
C 0.019797 0.742487 14.461691
C 1.312385 1.519062 14.374397
C -0.816238 1.701564 11.829003
C 1.767192 0.331055 11.758168
C -1.271045 2.889571 4.175073
C 0.021543 3.666146 4.087779
C -2.107080 3.848648 1.542385
C 0.476350 2.478139 1.471550
C -1.271045 2.889571 9.318382
C 0.021543 3.666146 9.231088
C -2.107080 3.848648 6.685694
C 0.476350 2.478139 6.614859
C -1.271045 2.889571 14.461691
C 0.021543 3.666146 14.374397
C -2.107080 3.848648 11.829003
C 0.476350 2.478139 11.758168
C -2.561887 5.036655 4.175073
C -1.269299 5.813230 4.087779
C -3.397922 5.995732 1.542385
C -0.814492 4.625223 1.471550
C -2.561887 5.036655 9.318382
C -1.269299 5.813230 9.231088
C -3.397922 5.995732 6.685694
C -0.814492 4.625223 6.614859
C -2.561887 5.036655 14.461691
C -1.269299 5.813230 14.374397
C -3.397922 5.995732 11.829003
C -0.814492 4.625223 11.758168
C 2.452208 0.742487 4.670158
C 3.744795 1.519062 4.582864
C 1.616173 1.701564 2.037470
C 4.199603 0.331055 1.966635
C 2.452208 0.742487 9.813467
C 3.744795 1.519062 9.726173
C 1.616173 1.701564 7.180779
C 4.199603 0.331055 7.109944
C 2.452208 0.742487 14.956776
C 3.744795 1.519062 14.869482
C 1.616173 1.701564 12.324088
C 4.199603 0.331055 12.253253
C 1.161366 2.889571 4.670158
C 2.453953 3.666146 4.582864
C 0.325331 3.848648 2.037470
C 2.908761 2.478139 1.966635
C 1.161366 2.889571 9.813467
C 2.453953 3.666146 9.726173
C 0.325331 3.848648 7.180779
C 2.908761 2.478139 7.109944
C 1.161366 2.889571 14.956776
C 2.453953 3.666146 14.869482
C 0.325331 3.848648 12.324088
C 2.908761 2.478139 12.253253
C -0.129476 5.036655 4.670158
C 1.163111 5.813230 4.582864
C -0.965511 5.995732 2.037470
C 1.617918 4.625223 1.966635
C -0.129476 5.036655 9.813467
C 1.163111 5.813230 9.726173
C -0.965511 5.995732 7.180779
C 1.617918 4.625223 7.109944
C -0.129476 5.036655 14.956776
C 1.163111 5.813230 14.869482
C -0.965511 5.995732 12.324088
C 1.617918 4.625223 12.253253
C 4.884619 0.742487 5.165243
C 6.177206 1.519062 5.077949
C 4.048584 1.701564 2.532555
C 6.632013 0.331055 2.461720
C 4.884619 0.742487 10.308552
C 6.177206 1.519062 10.221258
C 4.048584 1.701564 7.675864
C 6.632013 0.331055 7.605029
C 4.884619 0.742487 15.451861
C 6.177206 1.519062 15.364567
C 4.048584 1.701564 12.819173
C 6.632013 0.331055 12.748338
C 3.593776 2.889571 5.165243
C 4.886364 3.666146 5.077949
C 2.757742 3.848648 2.532555
C 5.341171 2.478139 2.461720
C 3.593776 2.889571 10.308552
C 4.886364 3.666146 10.221258
C 2.757742 3.848648 7.675864
C 5.341171 2.478139 7.605029
C 3.593776 2.889571 15.451861
C 4.886364 3.666146 15.364567
C 2.757742 3.848648 12.819173
C 5.341171 2.478139 12.748338
C 2.302934 5.036655 5.165243
C 3.595522 5.813230 5.077949
C 1.466899 5.995732 2.532555
C 4.050329 4.625223 2.461720
C 2.302934 5.036655 10.308552
C 3.595522 5.813230 10.221258
C 1.466899 5.995732 7.675864
C 4.050329 4.625223 7.605029
C 2.302934 5.036655 15.451861
C 3.595522 5.813230 15.364567
C 1.466899 5.995732 12.819173
C 4.050329 4.625223 12.748338
