108
A
C -0.069715 0.694151 3.813970
C 1.239916 1.491335 3.778963
C -0.783030 1.733174 1.484547
C 1.835510 0.380686 1.454151
C -0.069715 0.694151 8.424526
C 1.239916 1.491335 8.389519
C -0.783030 1.733174 6.095103
C 1.835510 0.380686 6.064707
C -0.069715 0.694151 13.035082
C 1.239916 1.491335 13.000075
C -0.783030 1.733174 10.705659
C 1.835510 0.380686 10.675263
C -1.378623 2.843823 3.813970
C -0.068993 3.641008 3.778963
C -2.091938 3.882846 1.484547
C 0.526601 2.530358 1.454151
C -1.378623 2.843823 8.424526
C -0.068993 3.641008 8.389519
C -2.091938 3.882846 6.095103
C 0.526601 2.530358 6.064707
C -1.378623 2.843823 13.035082
C -0.068993 3.641008 13.000075
C -2.091938 3.882846 10.705659
C 0.526601 2.530358 10.675263
C -2.687532 4.993496 3.813970
C -1.377902 5.790681 3.778963
C -3.400847 6.032519 1.484547
C -0.782308 4.680031 1.454151
C -2.687532 4.993496 8.424526
C -1.377902 5.790681 8.389519
C -3.400847 6.032519 6.095103
C -0.782308 4.680031 6.064707
C -2.687532 4.993496 13.035082
C -1.377902 5.790681 13.000075
C -3.400847 6.032519 10.705659
C -0.782308 4.680031 10.675263
C 2.350535 0.694151 4.469229
C 3.660165 1.491335 4.434223
C 1.637220 1.733174 2.139806
C 4.255759 0.380686 2.109410
C 2.350535 0.694151 9.079785
C 3.660165 1.491335 9.044778
C 1.637220 1.733174 6.750362
C 4.255759 0.380686 6.719966
C 2.350535 0.694151 13.690341
C 3.660165 1.491335 13.655334
C 1.637220 1.733174 11.360918
C 4.255759 0.380686 11.330522
C 1.041626 2.843823 4.469229
C 2.351256 3.641008 4.434223
C 0.328311 3.882846 2.139806
C 2.946850 2.530358 2.109410
C 1.041626 2.843823 9.079785
C 2.351256 3.641008 9.044778
C 0.328311 3.882846 6.750362
C 2.946850 2.530358 6.719966
C 1.041626 2.843823 13.690341
C 2.351256 3.641008 13.655334
C 0.328311 3.882846 11.360918
C 2.946850 2.530358 11.330522
C -0.267283 4.993496 4.469229
C 1.042348 5.790681 4.434223
C -0.980598 6.032519 2.139806
C 1.637942 4.680031 2.109410
C -0.267283 4.993496 9.079785
C 1.042348 5.790681 9.044778
C -0.980598 6.032519 6.750362
C 1.637942 4.680031 6.719966
C -0.267283 4.993496 13.690341
C 1.042348 5.790681 13.655334
C -0.980598 6.032519 11.360918
C 1.637942 4.680031 11.330522
C 4.770784 0.694151 5.124489
C 6.080415 1.491335 5.089482
C 4.057469 1.733174 2.795065
C 6.676008 0.380686 2.764669
C 4.770784 0.694151 9.735044
C 6.080415 1.491335 9.700038
C 4.057469 1.733174 7.405621
C 6.676008 0.380686 7.375225
C 4.770784 0.694151 14.345600
C 6.080415 1.491335 14.310594
C 4.057469 1.733174 12.016177
C 6.676008 0.380686 11.985781
C 3.461875 2.843823 5.124489
C 4.771506 3.641008 5.089482
C 2.748560 3.882846 2.795065
C 5.367100 2.530358 2.764669
C 3.461875 2.843823 9.735044
C 4.771506 3.641008 9.700038
C 2.748560 3.882846 7.405621
C 5.367100 2.530358 7.375225
C 3.461875 2.843823 14.345600
C 4.771506 3.641008 14.310594
C 2.748560 3.882846 12.016177
C 5.367100 2.530358 11.985781
C 2.152966 4.993496 5.124489
C 3.462597 5.790681 5.089482
C 1.439652 6.032519 2.795065
C 4.058191 4.680031 2.764669
C 2.152966 4.993496 9.735044
C 3.462597 5.790681 9.700038
C 1.439652 6.032519 7.405621
C 4.058191 4.680031 7.375225
C 2.152966 4.993496 14.345600
C 3.462597 5.790681 14.310594
C 1.439652 6.032519 12.016177
C 4.058191 4.680031 11.985781
