108
A
C 1.869096 0.635056 1.367782
C 1.877664 1.905148 2.327927
C 0.601514 1.871718 3.215636
C 0.592947 0.601626 0.480073
C 1.869096 0.635056 5.063491
C 1.877664 1.905148 6.023636
C 0.601514 1.871718 6.911345
C 0.592947 0.601626 4.175781
C 1.869096 0.635056 8.759199
C 1.877664 1.905148 9.719345
C 0.601514 1.871718 10.607054
C 0.592947 0.601626 7.871490
C 1.819696 3.141830 1.367782
C 1.828264 4.411922 2.327927
C 0.552114 4.378492 3.215636
C 0.543547 3.108400 0.480073
C 1.819696 3.141830 5.063491
C 1.828264 4.411922 6.023636
C 0.552114 4.378492 6.911345
C 0.543547 3.108400 4.175781
C 1.819696 3.141830 8.759199
C 1.828264 4.411922 9.719345
C 0.552114 4.378492 10.607054
C 0.543547 3.108400 7.871490
C 1.770296 5.648604 1.367782
C 1.778864 6.918696 2.327927
C 0.502714 6.885266 3.215636
C 0.494147 5.615173 0.480073
C 1.770296 5.648604 5.063491
C 1.778864 6.918696 6.023636
C 0.502714 6.885266 6.911345
C 0.494147 5.615173 4.175781
C 1.770296 5.648604 8.759199
C 1.778864 6.918696 9.719345
C 0.502714 6.885266 10.607054
C 0.494147 5.615173 7.871490
C 4.389107 0.635056 1.367782
C 4.397675 1.905148 2.327927
C 3.121525 1.871718 3.215636
C 3.112957 0.601626 0.480073
C 4.389107 0.635056 5.063491
C 4.397675 1.905148 6.023636
C 3.121525 1.871718 6.911345
C 3.112957 0.601626 4.175781
C 4.389107 0.635056 8.759199
C 4.397675 1.905148 9.719345
C 3.121525 1.871718 10.607054
C 3.112957 0.601626 7.871490
C 4.339707 3.141830 1.367782
C 4.348275 4.411922 2.327927
C 3.072125 4.378492 3.215636
C 3.063557 3.108400 0.480073
C 4.339707 3.141830 5.063491
C 4.348275 4.411922 6.023636
C 3.072125 4.378492 6.911345
C 3.063557 3.108400 4.175781
C 4.339707 3.141830 8.759199
C 4.348275 4.411922 9.719345
C 3.072125 4.378492 10.607054
C 3.063557 3.108400 7.871490
C 4.290307 5.648604 1.367782
C 4.298875 6.918696 2.327927
C 3.022725 6.885266 3.215636
C 3.014157 5.615173 0.480073
C 4.290307 5.648604 5.063491
C 4.298875 6.918696 6.023636
C 3.022725 6.885266 6.911345
C 3.014157 5.615173 4.175781
C 4.290307 5.648604 8.759199
C 4.298875 6.918696 9.719345
C 3.022725 6.885266 10.607054
C 3.014157 5.615173 7.871490
C 6.909118 0.635056 1.367782
C 6.917685 1.905148 2.327927
C 5.641535 1.871718 3.215636
C 5.632968 0.601626 0.480073
C 6.909118 0.635056 5.063491
C 6.917685 1.905148 6.023636
C 5.641535 1.871718 6.911345
C 5.632968 0.601626 4.175781
C 6.909118 0.635056 8.759199
C 6.917685 1.905148 9.719345
C 5.641535 1.871718 10.607054
C 5.632968 0.601626 7.871490
C 6.859718 3.141830 1.367782
C 6.868285 4.411922 2.327927
C 5.592135 4.378492 3.215636
C 5.583568 3.108400 0.480073
C 6.859718 3.141830 5.063491
C 6.868285 4.411922 6.023636
C 5.592135 4.378492 6.911345
C 5.583568 3.108400 4.175781
C 6.859718 3.141830 8.759199
C 6.868285 4.411922 9.719345
C 5.592135 4.378492 10.607054
C 5.583568 3.108400 7.871490
C 6.810318 5.648604 1.367782
C 6.818885 6.918696 2.327927
C 5.542735 6.885266 3.215636
C 5.534168 5.615173 0.480073
C 6.810318 5.648604 5.063491
C 6.818885 6.918696 6.023636
C 5.542735 6.885266 6.911345
C 5.534168 5.615173 4.175781
C 6.810318 5.648604 8.759199
C 6.818885 6.918696 9.719345
C 5.542735 6.885266 10.607054
C 5.534168 5.615173 7.871490
