108
A
C -0.101783 0.676544 3.675533
C 1.213852 1.481235 3.667969
C -0.771243 1.744686 1.461921
C 1.859871 0.398763 1.455241
C -0.101783 0.676544 8.092360
C 1.213852 1.481235 8.084797
C -0.771243 1.744686 5.878749
C 1.859871 0.398763 5.872069
C -0.101783 0.676544 12.509188
C 1.213852 1.481235 12.501625
C -0.771243 1.744686 10.295576
C 1.859871 0.398763 10.288896
C -1.417261 2.827158 3.675533
C -0.101626 3.631849 3.667969
C -2.086721 3.895299 1.461921
C 0.544393 2.549376 1.455241
C -1.417261 2.827158 8.092360
C -0.101626 3.631849 8.084797
C -2.086721 3.895299 5.878749
C 0.544393 2.549376 5.872069
C -1.417261 2.827158 12.509188
C -0.101626 3.631849 12.501625
C -2.086721 3.895299 10.295576
C 0.544393 2.549376 10.288896
C -2.732740 4.977772 3.675533
C -1.417104 5.782463 3.667969
C -3.402200 6.045913 1.461921
C -0.771086 4.699990 1.455241
C -2.732740 4.977772 8.092360
C -1.417104 5.782463 8.084797
C -3.402200 6.045913 5.878749
C -0.771086 4.699990 5.872069
C -2.732740 4.977772 12.509188
C -1.417104 5.782463 12.501625
C -3.402200 6.045913 10.295576
C -0.771086 4.699990 10.288896
C 2.314044 0.676544 4.389037
C 3.629680 1.481235 4.381474
C 1.644584 1.744686 2.175426
C 4.275698 0.398763 2.168746
C 2.314044 0.676544 8.805865
C 3.629680 1.481235 8.798302
C 1.644584 1.744686 6.592253
C 4.275698 0.398763 6.585573
C 2.314044 0.676544 13.222693
C 3.629680 1.481235 13.215129
C 1.644584 1.744686 11.009081
C 4.275698 0.398763 11.002401
C 0.998566 2.827158 4.389037
C 2.314201 3.631849 4.381474
C 0.329106 3.895299 2.175426
C 2.960220 2.549376 2.168746
C 0.998566 2.827158 8.805865
C 2.314201 3.631849 8.798302
C 0.329106 3.895299 6.592253
C 2.960220 2.549376 6.585573
C 0.998566 2.827158 13.222693
C 2.314201 3.631849 13.215129
C 0.329106 3.895299 11.009081
C 2.960220 2.549376 11.002401
C -0.316913 4.977772 4.389037
C 0.998723 5.782463 4.381474
C -0.986373 6.045913 2.175426
C 1.644741 4.699990 2.168746
C -0.316913 4.977772 8.805865
C 0.998723 5.782463 8.798302
C -0.986373 6.045913 6.592253
C 1.644741 4.699990 6.585573
C -0.316913 4.977772 13.222693
C 0.998723 5.782463 13.215129
C -0.986373 6.045913 11.009081
C 1.644741 4.699990 11.002401
C 4.729871 0.676544 5.102542
C 6.045507 1.481235 5.094979
C 4.060411 1.744686 2.888930
C 6.691525 0.398763 2.882250
C 4.729871 0.676544 9.519370
C 6.045507 1.481235 9.511806
C 4.060411 1.744686 7.305758
C 6.691525 0.398763 7.299078
C 4.729871 0.676544 13.936197
C 6.045507 1.481235 13.928634
C 4.060411 1.744686 11.722585
C 6.691525 0.398763 11.715906
C 3.414393 2.827158 5.102542
C 4.730028 3.631849 5.094979
C 2.744933 3.895299 2.888930
C 5.376047 2.549376 2.882250
C 3.414393 2.827158 9.519370
C 4.730028 3.631849 9.511806
C 2.744933 3.895299 7.305758
C 5.376047 2.549376 7.299078
C 3.414393 2.827158 13.936197
C 4.730028 3.631849 13.928634
C 2.744933 3.895299 11.722585
C 5.376047 2.549376 11.715906
C 2.098914 4.977772 5.102542
C 3.414550 5.782463 5.094979
C 1.429454 6.045913 2.888930
C 4.060568 4.699990 2.882250
C 2.098914 4.977772 9.519370
C 3.414550 5.782463 9.511806
C 1.429454 6.045913 7.305758
C 4.060568 4.699990 7.299078
C 2.098914 4.977772 13.936197
C 3.414550 5.782463 13.928634
C 1.429454 6.045913 11.722585
C 4.060568 4.699990 11.715906
