108
A
C 1.652621 0.671249 1.583078
C 1.706168 2.013556 3.272990
C 0.354636 1.697641 4.011112
C 0.301088 0.355333 0.844956
C 1.652621 0.671249 6.439146
C 1.706168 2.013556 8.129058
C 0.354636 1.697641 8.867180
C 0.301088 0.355333 5.701024
C 1.652621 0.671249 11.295214
C 1.706168 2.013556 12.985126
C 0.354636 1.697641 13.723248
C 0.301088 0.355333 10.557092
C 1.158621 3.040138 1.583078
C 1.212168 4.382446 3.272990
C -0.139364 4.066531 4.011112
C -0.192912 2.724223 0.844956
C 1.158621 3.040138 6.439146
C 1.212168 4.382446 8.129058
C -0.139364 4.066531 8.867180
C -0.192912 2.724223 5.701024
C 1.158621 3.040138 11.295214
C 1.212168 4.382446 12.985126
C -0.139364 4.066531 13.723248
C -0.192912 2.724223 10.557092
C 0.664621 5.409028 1.583078
C 0.718168 6.751336 3.272990
C -0.633364 6.435420 4.011112
C -0.686912 5.093113 0.844956
C 0.664621 5.409028 6.439146
C 0.718168 6.751336 8.129058
C -0.633364 6.435420 8.867180
C -0.686912 5.093113 5.701024
C 0.664621 5.409028 11.295214
C 0.718168 6.751336 12.985126
C -0.633364 6.435420 13.723248
C -0.686912 5.093113 10.557092
C 4.153877 0.671249 1.583078
C 4.207425 2.013556 3.272990
C 2.855892 1.697641 4.011112
C 2.802345 0.355333 0.844956
C 4.153877 0.671249 6.439146
C 4.207425 2.013556 8.129058
C 2.855892 1.697641 8.867180
C 2.802345 0.355333 5.701024
C 4.153877 0.671249 11.295214
C 4.207425 2.013556 12.985126
C 2.855892 1.697641 13.723248
C 2.802345 0.355333 10.557092
C 3.659877 3.040138 1.583078
C 3.713425 4.382446 3.272990
C 2.361892 4.066531 4.011112
C 2.308345 2.724223 0.844956
C 3.659877 3.040138 6.439146
C 3.713425 4.382446 8.129058
C 2.361892 4.066531 8.867180
C 2.308345 2.724223 5.701024
C 3.659877 3.040138 11.295214
C 3.713425 4.382446 12.985126
C 2.361892 4.066531 13.723248
C 2.308345 2.724223 10.557092
C 3.165877 5.409028 1.583078
C 3.219425 6.751336 3.272990
C 1.867892 6.435420 4.011112
C 1.814345 5.093113 0.844956
C 3.165877 5.409028 6.439146
C 3.219425 6.751336 8.129058
C 1.867892 6.435420 8.867180
C 1.814345 5.093113 5.701024
C 3.165877 5.409028 11.295214
C 3.219425 6.751336 12.985126
C 1.867892 6.435420 13.723248
C 1.814345 5.093113 10.557092
C 6.655134 0.671249 1.583078
C 6.708681 2.013556 3.272990
C 5.357149 1.697641 4.011112
C 5.303602 0.355333 0.844956
C 6.655134 0.671249 6.439146
C 6.708681 2.013556 8.129058
C 5.357149 1.697641 8.867180
C 5.303602 0.355333 5.701024
C 6.655134 0.671249 11.295214
C 6.708681 2.013556 12.985126
C 5.357149 1.697641 13.723248
C 5.303602 0.355333 10.557092
C 6.161134 3.040138 1.583078
C 6.214681 4.382446 3.272990
C 4.863149 4.066531 4.011112
C 4.809602 2.724223 0.844956
C 6.161134 3.040138 6.439146
C 6.214681 4.382446 8.129058
C 4.863149 4.066531 8.867180
C 4.809602 2.724223 5.701024
C 6.161134 3.040138 11.295214
C 6.214681 4.382446 12.985126
C 4.863149 4.066531 13.723248
C 4.809602 2.724223 10.557092
C 5.667134 5.409028 1.583078
C 5.720681 6.751336 3.272990
C 4.369149 6.435420 4.011112
C 4.315602 5.093113 0.844956
C 5.667134 5.409028 6.439146
C 5.720681 6.751336 8.129058
C 4.369149 6.435420 8.867180
C 4.315602 5.093113 5.701024
C 5.667134 5.409028 11.295214
C 5.720681 6.751336 12.985126
C 4.369149 6.435420 13.723248
C 4.315602 5.093113 10.557092
