108
A
C 0.161954 0.816956 4.676602
C 1.426675 1.561772 4.575376
C -0.869852 1.652853 1.619131
C 1.657790 0.254585 1.557285
C 0.161954 0.816956 10.643256
C 1.426675 1.561772 10.542031
C -0.869852 1.652853 7.585785
C 1.657790 0.254585 7.523940
C 0.161954 0.816956 16.609911
C 1.426675 1.561772 16.508685
C -0.869852 1.652853 13.552440
C 1.657790 0.254585 13.490594
C -1.100967 2.960040 4.676602
C 0.163754 3.704855 4.575376
C -2.132773 3.795936 1.619131
C 0.394869 2.397669 1.557285
C -1.100967 2.960040 10.643256
C 0.163754 3.704855 10.542031
C -2.132773 3.795936 7.585785
C 0.394869 2.397669 7.523940
C -1.100967 2.960040 16.609911
C 0.163754 3.704855 16.508685
C -2.132773 3.795936 13.552440
C 0.394869 2.397669 13.490594
C -2.363888 5.103123 4.676602
C -1.099167 5.847939 4.575376
C -3.395694 5.939020 1.619131
C -0.868052 4.540752 1.557285
C -2.363888 5.103123 10.643256
C -1.099167 5.847939 10.542031
C -3.395694 5.939020 7.585785
C -0.868052 4.540752 7.523940
C -2.363888 5.103123 16.609911
C -1.099167 5.847939 16.508685
C -3.395694 5.939020 13.552440
C -0.868052 4.540752 13.490594
C 2.613160 0.816956 4.924144
C 3.877881 1.561772 4.822919
C 1.581354 1.652853 1.866673
C 4.108996 0.254585 1.804828
C 2.613160 0.816956 10.890799
C 3.877881 1.561772 10.789573
C 1.581354 1.652853 7.833327
C 4.108996 0.254585 7.771482
C 2.613160 0.816956 16.857453
C 3.877881 1.561772 16.756228
C 1.581354 1.652853 13.799982
C 4.108996 0.254585 13.738137
C 1.350239 2.960040 4.924144
C 2.614960 3.704855 4.822919
C 0.318433 3.795936 1.866673
C 2.846075 2.397669 1.804828
C 1.350239 2.960040 10.890799
C 2.614960 3.704855 10.789573
C 0.318433 3.795936 7.833327
C 2.846075 2.397669 7.771482
C 1.350239 2.960040 16.857453
C 2.614960 3.704855 16.756228
C 0.318433 3.795936 13.799982
C 2.846075 2.397669 13.738137
C 0.087318 5.103123 4.924144
C 1.352038 5.847939 4.822919
C -0.944488 5.939020 1.866673
C 1.583154 4.540752 1.804828
C 0.087318 5.103123 10.890799
C 1.352038 5.847939 10.789573
C -0.944488 5.939020 7.833327
C 1.583154 4.540752 7.771482
C 0.087318 5.103123 16.857453
C 1.352038 5.847939 16.756228
C -0.944488 5.939020 13.799982
C 1.583154 4.540752 13.738137
C 5.064365 0.816956 5.171687
C 6.329086 1.561772 5.070461
C 4.032559 1.652853 2.114215
C 6.560201 0.254585 2.052370
C 5.064365 0.816956 11.138341
C 6.329086 1.561772 11.037116
C 4.032559 1.652853 8.080870
C 6.560201 0.254585 8.019024
C 5.064365 0.816956 17.104995
C 6.329086 1.561772 17.003770
C 4.032559 1.652853 14.047524
C 6.560201 0.254585 13.985679
C 3.801444 2.960040 5.171687
C 5.066165 3.704855 5.070461
C 2.769638 3.795936 2.114215
C 5.297280 2.397669 2.052370
C 3.801444 2.960040 11.138341
C 5.066165 3.704855 11.037116
C 2.769638 3.795936 8.080870
C 5.297280 2.397669 8.019024
C 3.801444 2.960040 17.104995
C 5.066165 3.704855 17.003770
C 2.769638 3.795936 14.047524
C 5.297280 2.397669 13.985679
C 2.538523 5.103123 5.171687
C 3.803244 5.847939 5.070461
C 1.506717 5.939020 2.114215
C 4.034359 4.540752 2.052370
C 2.538523 5.103123 11.138341
C 3.803244 5.847939 11.037116
C 1.506717 5.939020 8.080870
C 4.034359 4.540752 8.019024
C 2.538523 5.103123 17.104995
C 3.803244 5.847939 17.003770
C 1.506717 5.939020 14.047524
C 4.034359 4.540752 13.985679
