108
A
C 0.204648 0.838805 4.811044
C 1.460820 1.574301 4.721176
C -0.886150 1.638559 1.638781
C 1.624731 0.232148 1.596100
C 0.204648 0.838805 11.019859
C 1.460820 1.574301 10.929991
C -0.886150 1.638559 7.847596
C 1.624731 0.232148 7.804915
C 0.204648 0.838805 17.228674
C 1.460820 1.574301 17.138806
C -0.886150 1.638559 14.056411
C 1.624731 0.232148 14.013730
C -1.050061 2.980712 4.811044
C 0.206111 3.716208 4.721176
C -2.140859 3.780465 1.638781
C 0.370022 2.374055 1.596100
C -1.050061 2.980712 11.019859
C 0.206111 3.716208 10.929991
C -2.140859 3.780465 7.847596
C 0.370022 2.374055 7.804915
C -1.050061 2.980712 17.228674
C 0.206111 3.716208 17.138806
C -2.140859 3.780465 14.056411
C 0.370022 2.374055 14.013730
C -2.304770 5.122618 4.811044
C -1.048598 5.858115 4.721176
C -3.395568 5.922372 1.638781
C -0.884687 4.515962 1.596100
C -2.304770 5.122618 11.019859
C -1.048598 5.858115 10.929991
C -3.395568 5.922372 7.847596
C -0.884687 4.515962 7.804915
C -2.304770 5.122618 17.228674
C -1.048598 5.858115 17.138806
C -3.395568 5.922372 14.056411
C -0.884687 4.515962 14.013730
C 2.661381 0.838805 4.985780
C 3.917553 1.574301 4.895912
C 1.570583 1.638559 1.813517
C 4.081464 0.232148 1.770836
C 2.661381 0.838805 11.194595
C 3.917553 1.574301 11.104727
C 1.570583 1.638559 8.022332
C 4.081464 0.232148 7.979651
C 2.661381 0.838805 17.403410
C 3.917553 1.574301 17.313542
C 1.570583 1.638559 14.231147
C 4.081464 0.232148 14.188466
C 1.406672 2.980712 4.985780
C 2.662844 3.716208 4.895912
C 0.315874 3.780465 1.813517
C 2.826755 2.374055 1.770836
C 1.406672 2.980712 11.194595
C 2.662844 3.716208 11.104727
C 0.315874 3.780465 8.022332
C 2.826755 2.374055 7.979651
C 1.406672 2.980712 17.403410
C 2.662844 3.716208 17.313542
C 0.315874 3.780465 14.231147
C 2.826755 2.374055 14.188466
C 0.151963 5.122618 4.985780
C 1.408135 5.858115 4.895912
C -0.938835 5.922372 1.813517
C 1.572046 4.515962 1.770836
C 0.151963 5.122618 11.194595
C 1.408135 5.858115 11.104727
C -0.938835 5.922372 8.022332
C 1.572046 4.515962 7.979651
C 0.151963 5.122618 17.403410
C 1.408135 5.858115 17.313542
C -0.938835 5.922372 14.231147
C 1.572046 4.515962 14.188466
C 5.118114 0.838805 5.160516
C 6.374286 1.574301 5.070648
C 4.027316 1.638559 1.988253
C 6.538197 0.232148 1.945572
C 5.118114 0.838805 11.369331
C 6.374286 1.574301 11.279463
C 4.027316 1.638559 8.197068
C 6.538197 0.232148 8.154387
C 5.118114 0.838805 17.578146
C 6.374286 1.574301 17.488277
C 4.027316 1.638559 14.405883
C 6.538197 0.232148 14.363202
C 3.863405 2.980712 5.160516
C 5.119577 3.716208 5.070648
C 2.772607 3.780465 1.988253
C 5.283488 2.374055 1.945572
C 3.863405 2.980712 11.369331
C 5.119577 3.716208 11.279463
C 2.772607 3.780465 8.197068
C 5.283488 2.374055 8.154387
C 3.863405 2.980712 17.578146
C 5.119577 3.716208 17.488277
C 2.772607 3.780465 14.405883
C 5.283488 2.374055 14.363202
C 2.608696 5.122618 5.160516
C 3.864868 5.858115 5.070648
C 1.517898 5.922372 1.988253
C 4.028779 4.515962 1.945572
C 2.608696 5.122618 11.369331
C 3.864868 5.858115 11.279463
C 1.517898 5.922372 8.197068
C 4.028779 4.515962 8.154387
C 2.608696 5.122618 17.578146
C 3.864868 5.858115 17.488277
C 1.517898 5.922372 14.405883
C 4.028779 4.515962 14.363202
