108
A
C 1.403484 0.699819 1.697707
C 1.442997 2.099113 4.350952
C 0.127548 1.527357 4.722037
C 0.088034 0.128063 1.326622
C 1.403484 0.699819 7.746367
C 1.442997 2.099113 10.399611
C 0.127548 1.527357 10.770697
C 0.088034 0.128063 7.375282
C 1.403484 0.699819 13.795026
C 1.442997 2.099113 16.448271
C 0.127548 1.527357 16.819356
C 0.088034 0.128063 13.423941
C 0.452534 2.926994 1.697707
C 0.492047 4.326288 4.350952
C -0.823402 3.754532 4.722037
C -0.862916 2.355238 1.326622
C 0.452534 2.926994 7.746367
C 0.492047 4.326288 10.399611
C -0.823402 3.754532 10.770697
C -0.862916 2.355238 7.375282
C 0.452534 2.926994 13.795026
C 0.492047 4.326288 16.448271
C -0.823402 3.754532 16.819356
C -0.862916 2.355238 13.423941
C -0.498416 5.154169 1.697707
C -0.458903 6.553464 4.350952
C -1.774352 5.981708 4.722037
C -1.813866 4.582413 1.326622
C -0.498416 5.154169 7.746367
C -0.458903 6.553464 10.399611
C -1.774352 5.981708 10.770697
C -1.813866 4.582413 7.375282
C -0.498416 5.154169 13.795026
C -0.458903 6.553464 16.448271
C -1.774352 5.981708 16.819356
C -1.813866 4.582413 13.423941
C 3.885466 0.699819 1.697707
C 3.924979 2.099113 4.350952
C 2.609530 1.527357 4.722037
C 2.570016 0.128063 1.326622
C 3.885466 0.699819 7.746367
C 3.924979 2.099113 10.399611
C 2.609530 1.527357 10.770697
C 2.570016 0.128063 7.375282
C 3.885466 0.699819 13.795026
C 3.924979 2.099113 16.448271
C 2.609530 1.527357 16.819356
C 2.570016 0.128063 13.423941
C 2.934516 2.926994 1.697707
C 2.974029 4.326288 4.350952
C 1.658580 3.754532 4.722037
C 1.619066 2.355238 1.326622
C 2.934516 2.926994 7.746367
C 2.974029 4.326288 10.399611
C 1.658580 3.754532 10.770697
C 1.619066 2.355238 7.375282
C 2.934516 2.926994 13.795026
C 2.974029 4.326288 16.448271
C 1.658580 3.754532 16.819356
C 1.619066 2.355238 13.423941
C 1.983566 5.154169 1.697707
C 2.023079 6.553464 4.350952
C 0.707630 5.981708 4.722037
C 0.668116 4.582413 1.326622
C 1.983566 5.154169 7.746367
C 2.023079 6.553464 10.399611
C 0.707630 5.981708 10.770697
C 0.668116 4.582413 7.375282
C 1.983566 5.154169 13.795026
C 2.023079 6.553464 16.448271
C 0.707630 5.981708 16.819356
C 0.668116 4.582413 13.423941
C 6.367447 0.699819 1.697707
C 6.406961 2.099113 4.350952
C 5.091511 1.527357 4.722037
C 5.051998 0.128063 1.326622
C 6.367447 0.699819 7.746367
C 6.406961 2.099113 10.399611
C 5.091511 1.527357 10.770697
C 5.051998 0.128063 7.375282
C 6.367447 0.699819 13.795026
C 6.406961 2.099113 16.448271
C 5.091511 1.527357 16.819356
C 5.051998 0.128063 13.423941
C 5.416497 2.926994 1.697707
C 5.456011 4.326288 4.350952
C 4.140561 3.754532 4.722037
C 4.101048 2.355238 1.326622
C 5.416497 2.926994 7.746367
C 5.456011 4.326288 10.399611
C 4.140561 3.754532 10.770697
C 4.101048 2.355238 7.375282
C 5.416497 2.926994 13.795026
C 5.456011 4.326288 16.448271
C 4.140561 3.754532 16.819356
C 4.101048 2.355238 13.423941
C 4.465547 5.154169 1.697707
C 4.505061 6.553464 4.350952
C 3.189611 5.981708 4.722037
C 3.150098 4.582413 1.326622
C 4.465547 5.154169 7.746367
C 4.505061 6.553464 10.399611
C 3.189611 5.981708 10.770697
C 3.150098 4.582413 7.375282
C 4.465547 5.154169 13.795026
C 4.505061 6.553464 16.448271
C 3.189611 5.981708 16.819356
C 3.150098 4.582413 13.423941
