108
A
C 1.646242 0.672136 1.587598
C 1.700214 2.016213 3.300703
C 0.348143 1.692924 4.031748
C 0.294172 0.348846 0.856552
C 1.646242 0.672136 6.475898
C 1.700214 2.016213 8.189003
C 0.348143 1.692924 8.920048
C 0.294172 0.348846 5.744853
C 1.646242 0.672136 11.364198
C 1.700214 2.016213 13.077303
C 0.348143 1.692924 13.808348
C 0.294172 0.348846 10.633153
C 1.139892 3.037195 1.587598
C 1.193864 4.381273 3.300703
C -0.158207 4.057983 4.031748
C -0.212178 2.713906 0.856552
C 1.139892 3.037195 6.475898
C 1.193864 4.381273 8.189003
C -0.158207 4.057983 8.920048
C -0.212178 2.713906 5.744853
C 1.139892 3.037195 11.364198
C 1.193864 4.381273 13.077303
C -0.158207 4.057983 13.808348
C -0.212178 2.713906 10.633153
C 0.633542 5.402255 1.587598
C 0.687514 6.746332 3.300703
C -0.664557 6.423043 4.031748
C -0.718528 5.078965 0.856552
C 0.633542 5.402255 6.475898
C 0.687514 6.746332 8.189003
C -0.664557 6.423043 8.920048
C -0.718528 5.078965 5.744853
C 0.633542 5.402255 11.364198
C 0.687514 6.746332 13.077303
C -0.664557 6.423043 13.808348
C -0.718528 5.078965 10.633153
C 4.146978 0.672136 1.587598
C 4.200949 2.016213 3.300703
C 2.848879 1.692924 4.031748
C 2.794908 0.348846 0.856552
C 4.146978 0.672136 6.475898
C 4.200949 2.016213 8.189003
C 2.848879 1.692924 8.920048
C 2.794908 0.348846 5.744853
C 4.146978 0.672136 11.364198
C 4.200949 2.016213 13.077303
C 2.848879 1.692924 13.808348
C 2.794908 0.348846 10.633153
C 3.640628 3.037195 1.587598
C 3.694599 4.381273 3.300703
C 2.342529 4.057983 4.031748
C 2.288558 2.713906 0.856552
C 3.640628 3.037195 6.475898
C 3.694599 4.381273 8.189003
C 2.342529 4.057983 8.920048
C 2.288558 2.713906 5.744853
C 3.640628 3.037195 11.364198
C 3.694599 4.381273 13.077303
C 2.342529 4.057983 13.808348
C 2.288558 2.713906 10.633153
C 3.134278 5.402255 1.587598
C 3.188249 6.746332 3.300703
C 1.836179 6.423043 4.031748
C 1.782208 5.078965 0.856552
C 3.134278 5.402255 6.475898
C 3.188249 6.746332 8.189003
C 1.836179 6.423043 8.920048
C 1.782208 5.078965 5.744853
C 3.134278 5.402255 11.364198
C 3.188249 6.746332 13.077303
C 1.836179 6.423043 13.808348
C 1.782208 5.078965 10.633153
C 6.647714 0.672136 1.587598
C 6.701685 2.016213 3.300703
C 5.349614 1.692924 4.031748
C 5.295643 0.348846 0.856552
C 6.647714 0.672136 6.475898
C 6.701685 2.016213 8.189003
C 5.349614 1.692924 8.920048
C 5.295643 0.348846 5.744853
C 6.647714 0.672136 11.364198
C 6.701685 2.016213 13.077303
C 5.349614 1.692924 13.808348
C 5.295643 0.348846 10.633153
C 6.141364 3.037195 1.587598
C 6.195335 4.381273 3.300703
C 4.843264 4.057983 4.031748
C 4.789293 2.713906 0.856552
C 6.141364 3.037195 6.475898
C 6.195335 4.381273 8.189003
C 4.843264 4.057983 8.920048
C 4.789293 2.713906 5.744853
C 6.141364 3.037195 11.364198
C 6.195335 4.381273 13.077303
C 4.843264 4.057983 13.808348
C 4.789293 2.713906 10.633153
C 5.635014 5.402255 1.587598
C 5.688985 6.746332 3.300703
C 4.336914 6.423043 4.031748
C 4.282943 5.078965 0.856552
C 5.635014 5.402255 6.475898
C 5.688985 6.746332 8.189003
C 4.336914 6.423043 8.920048
C 4.282943 5.078965 5.744853
C 5.635014 5.402255 11.364198
C 5.688985 6.746332 13.077303
C 4.336914 6.423043 13.808348
C 4.282943 5.078965 10.633153
