108
A
C 1.658979 0.670355 1.578480
C 1.712058 2.010880 3.245356
C 0.361148 1.702365 3.990398
C 0.308069 0.361840 0.833438
C 1.658979 0.670355 6.402315
C 1.712058 2.010880 8.069192
C 0.361148 1.702365 8.814233
C 0.308069 0.361840 5.657274
C 1.658979 0.670355 11.226151
C 1.712058 2.010880 12.893028
C 0.361148 1.702365 13.638069
C 0.308069 0.361840 10.481110
C 1.177329 3.043075 1.578480
C 1.230408 4.383600 3.245356
C -0.120502 4.075085 3.990398
C -0.173581 2.734560 0.833438
C 1.177329 3.043075 6.402315
C 1.230408 4.383600 8.069192
C -0.120502 4.075085 8.814233
C -0.173581 2.734560 5.657274
C 1.177329 3.043075 11.226151
C 1.230408 4.383600 12.893028
C -0.120502 4.075085 13.638069
C -0.173581 2.734560 10.481110
C 0.695679 5.415795 1.578480
C 0.748758 6.756320 3.245356
C -0.602152 6.447804 3.990398
C -0.655231 5.107279 0.833438
C 0.695679 5.415795 6.402315
C 0.748758 6.756320 8.069192
C -0.602152 6.447804 8.814233
C -0.655231 5.107279 5.657274
C 0.695679 5.415795 11.226151
C 0.748758 6.756320 12.893028
C -0.602152 6.447804 13.638069
C -0.655231 5.107279 10.481110
C 4.160757 0.670355 1.578480
C 4.213836 2.010880 3.245356
C 2.862926 1.702365 3.990398
C 2.809847 0.361840 0.833438
C 4.160757 0.670355 6.402315
C 4.213836 2.010880 8.069192
C 2.862926 1.702365 8.814233
C 2.809847 0.361840 5.657274
C 4.160757 0.670355 11.226151
C 4.213836 2.010880 12.893028
C 2.862926 1.702365 13.638069
C 2.809847 0.361840 10.481110
C 3.679107 3.043075 1.578480
C 3.732186 4.383600 3.245356
C 2.381276 4.075085 3.990398
C 2.328197 2.734560 0.833438
C 3.679107 3.043075 6.402315
C 3.732186 4.383600 8.069192
C 2.381276 4.075085 8.814233
C 2.328197 2.734560 5.657274
C 3.679107 3.043075 11.226151
C 3.732186 4.383600 12.893028
C 2.381276 4.075085 13.638069
C 2.328197 2.734560 10.481110
C 3.197457 5.415795 1.578480
C 3.250536 6.756320 3.245356
C 1.899626 6.447804 3.990398
C 1.846547 5.107279 0.833438
C 3.197457 5.415795 6.402315
C 3.250536 6.756320 8.069192
C 1.899626 6.447804 8.814233
C 1.846547 5.107279 5.657274
C 3.197457 5.415795 11.226151
C 3.250536 6.756320 12.893028
C 1.899626 6.447804 13.638069
C 1.846547 5.107279 10.481110
C 6.662534 0.670355 1.578480
C 6.715613 2.010880 3.245356
C 5.364703 1.702365 3.990398
C 5.311625 0.361840 0.833438
C 6.662534 0.670355 6.402315
C 6.715613 2.010880 8.069192
C 5.364703 1.702365 8.814233
C 5.311625 0.361840 5.657274
C 6.662534 0.670355 11.226151
C 6.715613 2.010880 12.893028
C 5.364703 1.702365 13.638069
C 5.311625 0.361840 10.481110
C 6.180884 3.043075 1.578480
C 6.233963 4.383600 3.245356
C 4.883053 4.075085 3.990398
C 4.829975 2.734560 0.833438
C 6.180884 3.043075 6.402315
C 6.233963 4.383600 8.069192
C 4.883053 4.075085 8.814233
C 4.829975 2.734560 5.657274
C 6.180884 3.043075 11.226151
C 6.233963 4.383600 12.893028
C 4.883053 4.075085 13.638069
C 4.829975 2.734560 10.481110
C 5.699234 5.415795 1.578480
C 5.752313 6.756320 3.245356
C 4.401403 6.447804 3.990398
C 4.348325 5.107279 0.833438
C 5.699234 5.415795 6.402315
C 5.752313 6.756320 8.069192
C 4.401403 6.447804 8.814233
C 4.348325 5.107279 5.657274
C 5.699234 5.415795 11.226151
C 5.752313 6.756320 12.893028
C 4.401403 6.447804 13.638069
C 4.348325 5.107279 10.481110
