108
A
C 1.852034 0.638388 1.389632
C 1.866558 1.915130 2.402773
C 0.579964 1.856895 3.285835
C 0.565439 0.580153 0.506571
C 1.852034 0.638388 5.182038
C 1.866558 1.915130 6.195179
C 0.579964 1.856895 7.078240
C 0.565439 0.580153 4.298976
C 1.852034 0.638388 8.974443
C 1.866558 1.915130 9.987584
C 0.579964 1.856895 10.870646
C 0.565439 0.580153 8.091381
C 1.765584 3.133672 1.389632
C 1.780108 4.410414 2.402773
C 0.493514 4.352179 3.285835
C 0.478989 3.075437 0.506571
C 1.765584 3.133672 5.182038
C 1.780108 4.410414 6.195179
C 0.493514 4.352179 7.078240
C 0.478989 3.075437 4.298976
C 1.765584 3.133672 8.974443
C 1.780108 4.410414 9.987584
C 0.493514 4.352179 10.870646
C 0.478989 3.075437 8.091381
C 1.679134 5.628955 1.389632
C 1.693658 6.905697 2.402773
C 0.407064 6.847462 3.285835
C 0.392539 5.570720 0.506571
C 1.679134 5.628955 5.182038
C 1.693658 6.905697 6.195179
C 0.407064 6.847462 7.078240
C 0.392539 5.570720 4.298976
C 1.679134 5.628955 8.974443
C 1.693658 6.905697 9.987584
C 0.407064 6.847462 10.870646
C 0.392539 5.570720 8.091381
C 4.370481 0.638388 1.389632
C 4.385006 1.915130 2.402773
C 3.098412 1.856895 3.285835
C 3.083887 0.580153 0.506571
C 4.370481 0.638388 5.182038
C 4.385006 1.915130 6.195179
C 3.098412 1.856895 7.078240
C 3.083887 0.580153 4.298976
C 4.370481 0.638388 8.974443
C 4.385006 1.915130 9.987584
C 3.098412 1.856895 10.870646
C 3.083887 0.580153 8.091381
C 4.284031 3.133672 1.389632
C 4.298556 4.410414 2.402773
C 3.011962 4.352179 3.285835
C 2.997437 3.075437 0.506571
C 4.284031 3.133672 5.182038
C 4.298556 4.410414 6.195179
C 3.011962 4.352179 7.078240
C 2.997437 3.075437 4.298976
C 4.284031 3.133672 8.974443
C 4.298556 4.410414 9.987584
C 3.011962 4.352179 10.870646
C 2.997437 3.075437 8.091381
C 4.197581 5.628955 1.389632
C 4.212106 6.905697 2.402773
C 2.925512 6.847462 3.285835
C 2.910987 5.570720 0.506571
C 4.197581 5.628955 5.182038
C 4.212106 6.905697 6.195179
C 2.925512 6.847462 7.078240
C 2.910987 5.570720 4.298976
C 4.197581 5.628955 8.974443
C 4.212106 6.905697 9.987584
C 2.925512 6.847462 10.870646
C 2.910987 5.570720 8.091381
C 6.888929 0.638388 1.389632
C 6.903454 1.915130 2.402773
C 5.616860 1.856895 3.285835
C 5.602335 0.580153 0.506571
C 6.888929 0.638388 5.182038
C 6.903454 1.915130 6.195179
C 5.616860 1.856895 7.078240
C 5.602335 0.580153 4.298976
C 6.888929 0.638388 8.974443
C 6.903454 1.915130 9.987584
C 5.616860 1.856895 10.870646
C 5.602335 0.580153 8.091381
C 6.802479 3.133672 1.389632
C 6.817004 4.410414 2.402773
C 5.530410 4.352179 3.285835
C 5.515885 3.075437 0.506571
C 6.802479 3.133672 5.182038
C 6.817004 4.410414 6.195179
C 5.530410 4.352179 7.078240
C 5.515885 3.075437 4.298976
C 6.802479 3.133672 8.974443
C 6.817004 4.410414 9.987584
C 5.530410 4.352179 10.870646
C 5.515885 3.075437 8.091381
C 6.716029 5.628955 1.389632
C 6.730554 6.905697 2.402773
C 5.443960 6.847462 3.285835
C 5.429435 5.570720 0.506571
C 6.716029 5.628955 5.182038
C 6.730554 6.905697 6.195179
C 5.443960 6.847462 7.078240
C 5.429435 5.570720 4.298976
C 6.716029 5.628955 8.974443
C 6.730554 6.905697 9.987584
C 5.443960 6.847462 10.870646
C 5.429435 5.570720 8.091381
