108
A
C 0.149225 0.810397 4.635111
C 1.416479 1.558010 4.531848
C -0.865009 1.657144 1.612976
C 1.667630 0.261321 1.546846
C 0.149225 0.810397 10.529117
C 1.416479 1.558010 10.425854
C -0.865009 1.657144 7.506983
C 1.667630 0.261321 7.440852
C 0.149225 0.810397 16.423123
C 1.416479 1.558010 16.319861
C -0.865009 1.657144 13.400989
C 1.667630 0.261321 13.334859
C -1.116160 2.953833 4.635111
C 0.151094 3.701447 4.531848
C -2.130394 3.800581 1.612976
C 0.402245 2.404758 1.546846
C -1.116160 2.953833 10.529117
C 0.151094 3.701447 10.425854
C -2.130394 3.800581 7.506983
C 0.402245 2.404758 7.440852
C -1.116160 2.953833 16.423123
C 0.151094 3.701447 16.319861
C -2.130394 3.800581 13.400989
C 0.402245 2.404758 13.334859
C -2.381545 5.097270 4.635111
C -1.114290 5.844883 4.531848
C -3.395778 5.944017 1.612976
C -0.863139 4.548194 1.546846
C -2.381545 5.097270 10.529117
C -1.114290 5.844883 10.425854
C -3.395778 5.944017 7.506983
C -0.863139 4.548194 7.440852
C -2.381545 5.097270 16.423123
C -1.114290 5.844883 16.319861
C -3.395778 5.944017 13.400989
C -0.863139 4.548194 13.334859
C 2.598771 0.810397 4.904495
C 3.866026 1.558010 4.801233
C 1.584538 1.657144 1.882361
C 4.117177 0.261321 1.816230
C 2.598771 0.810397 10.798502
C 3.866026 1.558010 10.695239
C 1.584538 1.657144 7.776367
C 4.117177 0.261321 7.710237
C 2.598771 0.810397 16.692508
C 3.866026 1.558010 16.589245
C 1.584538 1.657144 13.670374
C 4.117177 0.261321 13.604243
C 1.333387 2.953833 4.904495
C 2.600641 3.701447 4.801233
C 0.319153 3.800581 1.882361
C 2.851792 2.404758 1.816230
C 1.333387 2.953833 10.798502
C 2.600641 3.701447 10.695239
C 0.319153 3.800581 7.776367
C 2.851792 2.404758 7.710237
C 1.333387 2.953833 16.692508
C 2.600641 3.701447 16.589245
C 0.319153 3.800581 13.670374
C 2.851792 2.404758 13.604243
C 0.068002 5.097270 4.904495
C 1.335256 5.844883 4.801233
C -0.946231 5.944017 1.882361
C 1.586408 4.548194 1.816230
C 0.068002 5.097270 10.798502
C 1.335256 5.844883 10.695239
C -0.946231 5.944017 7.776367
C 1.586408 4.548194 7.710237
C 0.068002 5.097270 16.692508
C 1.335256 5.844883 16.589245
C -0.946231 5.944017 13.670374
C 1.586408 4.548194 13.604243
C 5.048318 0.810397 5.173880
C 6.315573 1.558010 5.070617
C 4.034085 1.657144 2.151745
C 6.566724 0.261321 2.085615
C 5.048318 0.810397 11.067886
C 6.315573 1.558010 10.964623
C 4.034085 1.657144 8.045752
C 6.566724 0.261321 7.979621
C 5.048318 0.810397 16.961892
C 6.315573 1.558010 16.858630
C 4.034085 1.657144 13.939758
C 6.566724 0.261321 13.873628
C 3.782934 2.953833 5.173880
C 5.050188 3.701447 5.070617
C 2.768700 3.800581 2.151745
C 5.301339 2.404758 2.085615
C 3.782934 2.953833 11.067886
C 5.050188 3.701447 10.964623
C 2.768700 3.800581 8.045752
C 5.301339 2.404758 7.979621
C 3.782934 2.953833 16.961892
C 5.050188 3.701447 16.858630
C 2.768700 3.800581 13.939758
C 5.301339 2.404758 13.873628
C 2.517549 5.097270 5.173880
C 3.784803 5.844883 5.070617
C 1.503315 5.944017 2.151745
C 4.035955 4.548194 2.085615
C 2.517549 5.097270 11.067886
C 3.784803 5.844883 10.964623
C 1.503315 5.944017 8.045752
C 4.035955 4.548194 7.979621
C 2.517549 5.097270 16.961892
C 3.784803 5.844883 16.858630
C 1.503315 5.944017 13.939758
C 4.035955 4.548194 13.873628
