108
A
C 1.702936 0.663921 1.544079
C 1.751486 1.991610 3.054131
C 0.407288 1.735609 3.843184
C 0.358738 0.407920 0.755026
C 1.702936 0.663921 6.142289
C 1.751486 1.991610 7.652342
C 0.407288 1.735609 8.441395
C 0.358738 0.407920 5.353237
C 1.702936 0.663921 10.740500
C 1.751486 1.991610 12.250552
C 0.407288 1.735609 13.039605
C 0.358738 0.407920 9.951447
C 1.307736 3.063452 1.544079
C 1.356286 4.391141 3.054131
C 0.012088 4.135140 3.843184
C -0.036462 2.807451 0.755026
C 1.307736 3.063452 6.142289
C 1.356286 4.391141 7.652342
C 0.012088 4.135140 8.441395
C -0.036462 2.807451 5.353237
C 1.307736 3.063452 10.740500
C 1.356286 4.391141 12.250552
C 0.012088 4.135140 13.039605
C -0.036462 2.807451 9.951447
C 0.912536 5.462983 1.544079
C 0.961086 6.790672 3.054131
C -0.383112 6.534671 3.843184
C -0.431662 5.206981 0.755026
C 0.912536 5.462983 6.142289
C 0.961086 6.790672 7.652342
C -0.383112 6.534671 8.441395
C -0.431662 5.206981 5.353237
C 0.912536 5.462983 10.740500
C 0.961086 6.790672 12.250552
C -0.383112 6.534671 13.039605
C -0.431662 5.206981 9.951447
C 4.208361 0.663921 1.544079
C 4.256910 1.991610 3.054131
C 2.912712 1.735609 3.843184
C 2.864162 0.407920 0.755026
C 4.208361 0.663921 6.142289
C 4.256910 1.991610 7.652342
C 2.912712 1.735609 8.441395
C 2.864162 0.407920 5.353237
C 4.208361 0.663921 10.740500
C 4.256910 1.991610 12.250552
C 2.912712 1.735609 13.039605
C 2.864162 0.407920 9.951447
C 3.813161 3.063452 1.544079
C 3.861710 4.391141 3.054131
C 2.517512 4.135140 3.843184
C 2.468962 2.807451 0.755026
C 3.813161 3.063452 6.142289
C 3.861710 4.391141 7.652342
C 2.517512 4.135140 8.441395
C 2.468962 2.807451 5.353237
C 3.813161 3.063452 10.740500
C 3.861710 4.391141 12.250552
C 2.517512 4.135140 13.039605
C 2.468962 2.807451 9.951447
C 3.417961 5.462983 1.544079
C 3.466510 6.790672 3.054131
C 2.122312 6.534671 3.843184
C 2.073762 5.206981 0.755026
C 3.417961 5.462983 6.142289
C 3.466510 6.790672 7.652342
C 2.122312 6.534671 8.441395
C 2.073762 5.206981 5.353237
C 3.417961 5.462983 10.740500
C 3.466510 6.790672 12.250552
C 2.122312 6.534671 13.039605
C 2.073762 5.206981 9.951447
C 6.713785 0.663921 1.544079
C 6.762334 1.991610 3.054131
C 5.418136 1.735609 3.843184
C 5.369586 0.407920 0.755026
C 6.713785 0.663921 6.142289
C 6.762334 1.991610 7.652342
C 5.418136 1.735609 8.441395
C 5.369586 0.407920 5.353237
C 6.713785 0.663921 10.740500
C 6.762334 1.991610 12.250552
C 5.418136 1.735609 13.039605
C 5.369586 0.407920 9.951447
C 6.318585 3.063452 1.544079
C 6.367134 4.391141 3.054131
C 5.022936 4.135140 3.843184
C 4.974386 2.807451 0.755026
C 6.318585 3.063452 6.142289
C 6.367134 4.391141 7.652342
C 5.022936 4.135140 8.441395
C 4.974386 2.807451 5.353237
C 6.318585 3.063452 10.740500
C 6.367134 4.391141 12.250552
C 5.022936 4.135140 13.039605
C 4.974386 2.807451 9.951447
C 5.923385 5.462983 1.544079
C 5.971934 6.790672 3.054131
C 4.627736 6.534671 3.843184
C 4.579186 5.206981 0.755026
C 5.923385 5.462983 6.142289
C 5.971934 6.790672 7.652342
C 4.627736 6.534671 8.441395
C 4.579186 5.206981 5.353237
C 5.923385 5.462983 10.740500
C 5.971934 6.790672 12.250552
C 4.627736 6.534671 13.039605
C 4.579186 5.206981 9.951447
