108
A
C 0.032154 0.749070 4.222087
C 1.322357 1.522837 4.130297
C -0.820856 1.697259 1.549775
C 1.757726 0.324296 1.476241
C 0.032154 0.749070 9.438044
C 1.322357 1.522837 9.346255
C -0.820856 1.697259 6.765732
C 1.757726 0.324296 6.692198
C 0.032154 0.749070 14.654001
C 1.322357 1.522837 14.562212
C -0.820856 1.697259 11.981689
C 1.757726 0.324296 11.908155
C -1.256224 2.895801 4.222087
C 0.033979 3.669568 4.130297
C -2.109235 3.843990 1.549775
C 0.469347 2.471027 1.476241
C -1.256224 2.895801 9.438044
C 0.033979 3.669568 9.346255
C -2.109235 3.843990 6.765732
C 0.469347 2.471027 6.692198
C -1.256224 2.895801 14.654001
C 0.033979 3.669568 14.562212
C -2.109235 3.843990 11.981689
C 0.469347 2.471027 11.908155
C -2.544603 5.042532 4.222087
C -1.254400 5.816299 4.130297
C -3.397613 5.990721 1.549775
C -0.819031 4.617758 1.476241
C -2.544603 5.042532 9.438044
C -1.254400 5.816299 9.346255
C -3.397613 5.990721 6.765732
C -0.819031 4.617758 6.692198
C -2.544603 5.042532 14.654001
C -1.254400 5.816299 14.562212
C -3.397613 5.990721 11.981689
C -0.819031 4.617758 11.908155
C 2.466223 0.749070 4.695330
C 3.756426 1.522837 4.603540
C 1.613213 1.697259 2.023017
C 4.191795 0.324296 1.949484
C 2.466223 0.749070 9.911287
C 3.756426 1.522837 9.819497
C 1.613213 1.697259 7.238974
C 4.191795 0.324296 7.165441
C 2.466223 0.749070 15.127244
C 3.756426 1.522837 15.035454
C 1.613213 1.697259 12.454932
C 4.191795 0.324296 12.381398
C 1.177844 2.895801 4.695330
C 2.468048 3.669568 4.603540
C 0.324834 3.843990 2.023017
C 2.903416 2.471027 1.949484
C 1.177844 2.895801 9.911287
C 2.468048 3.669568 9.819497
C 0.324834 3.843990 7.238974
C 2.903416 2.471027 7.165441
C 1.177844 2.895801 15.127244
C 2.468048 3.669568 15.035454
C 0.324834 3.843990 12.454932
C 2.903416 2.471027 12.381398
C -0.110534 5.042532 4.695330
C 1.179669 5.816299 4.603540
C -0.963544 5.990721 2.023017
C 1.615038 4.617758 1.949484
C -0.110534 5.042532 9.911287
C 1.179669 5.816299 9.819497
C -0.963544 5.990721 7.238974
C 1.615038 4.617758 7.165441
C -0.110534 5.042532 15.127244
C 1.179669 5.816299 15.035454
C -0.963544 5.990721 12.454932
C 1.615038 4.617758 12.381398
C 4.900292 0.749070 5.168573
C 6.190495 1.522837 5.076783
C 4.047282 1.697259 2.496260
C 6.625864 0.324296 2.422726
C 4.900292 0.749070 10.384530
C 6.190495 1.522837 10.292740
C 4.047282 1.697259 7.712217
C 6.625864 0.324296 7.638683
C 4.900292 0.749070 15.600487
C 6.190495 1.522837 15.508697
C 4.047282 1.697259 12.928174
C 6.625864 0.324296 12.854641
C 3.611913 2.895801 5.168573
C 4.902117 3.669568 5.076783
C 2.758903 3.843990 2.496260
C 5.337485 2.471027 2.422726
C 3.611913 2.895801 10.384530
C 4.902117 3.669568 10.292740
C 2.758903 3.843990 7.712217
C 5.337485 2.471027 7.638683
C 3.611913 2.895801 15.600487
C 4.902117 3.669568 15.508697
C 2.758903 3.843990 12.928174
C 5.337485 2.471027 12.854641
C 2.323535 5.042532 5.168573
C 3.613738 5.816299 5.076783
C 1.470525 5.990721 2.496260
C 4.049107 4.617758 2.422726
C 2.323535 5.042532 10.384530
C 3.613738 5.816299 10.292740
C 1.470525 5.990721 7.712217
C 4.049107 4.617758 7.638683
C 2.323535 5.042532 15.600487
C 3.613738 5.816299 15.508697
C 1.470525 5.990721 12.928174
C 4.049107 4.617758 12.854641
