108
A
C 0.226145 0.849720 4.876038
C 1.477983 1.580561 4.794483
C -0.894390 1.631417 1.648109
C 1.608050 0.220939 1.617825
C 0.226145 0.849720 11.205933
C 1.477983 1.580561 11.124378
C -0.894390 1.631417 7.978004
C 1.608050 0.220939 7.947721
C 0.226145 0.849720 17.535829
C 1.477983 1.580561 17.454273
C -0.894390 1.631417 14.307899
C 1.608050 0.220939 14.277616
C -1.024458 2.991038 4.876038
C 0.227380 3.721879 4.794483
C -2.144993 3.772735 1.648109
C 0.357447 2.362257 1.617825
C -1.024458 2.991038 11.205933
C 0.227380 3.721879 11.124378
C -2.144993 3.772735 7.978004
C 0.357447 2.362257 7.947721
C -1.024458 2.991038 17.535829
C 0.227380 3.721879 17.454273
C -2.144993 3.772735 14.307899
C 0.357447 2.362257 14.277616
C -2.275061 5.132357 4.876038
C -1.023223 5.863197 4.794483
C -3.395596 5.914054 1.648109
C -0.893156 4.503576 1.617825
C -2.275061 5.132357 11.205933
C -1.023223 5.863197 11.124378
C -3.395596 5.914054 7.978004
C -0.893156 4.503576 7.947721
C -2.275061 5.132357 17.535829
C -1.023223 5.863197 17.454273
C -3.395596 5.914054 14.307899
C -0.893156 4.503576 14.277616
C 2.685642 0.849720 5.014371
C 3.937480 1.580561 4.932815
C 1.565107 1.631417 1.786441
C 4.067547 0.220939 1.756158
C 2.685642 0.849720 11.344266
C 3.937480 1.580561 11.262711
C 1.565107 1.631417 8.116336
C 4.067547 0.220939 8.086053
C 2.685642 0.849720 17.674161
C 3.937480 1.580561 17.592606
C 1.565107 1.631417 14.446231
C 4.067547 0.220939 14.415948
C 1.435039 2.991038 5.014371
C 2.686877 3.721879 4.932815
C 0.314504 3.772735 1.786441
C 2.816944 2.362257 1.756158
C 1.435039 2.991038 11.344266
C 2.686877 3.721879 11.262711
C 0.314504 3.772735 8.116336
C 2.816944 2.362257 8.086053
C 1.435039 2.991038 17.674161
C 2.686877 3.721879 17.592606
C 0.314504 3.772735 14.446231
C 2.816944 2.362257 14.415948
C 0.184437 5.132357 5.014371
C 1.436274 5.863197 4.932815
C -0.936099 5.914054 1.786441
C 1.566341 4.503576 1.756158
C 0.184437 5.132357 11.344266
C 1.436274 5.863197 11.262711
C -0.936099 5.914054 8.116336
C 1.566341 4.503576 8.086053
C 0.184437 5.132357 17.674161
C 1.436274 5.863197 17.592606
C -0.936099 5.914054 14.446231
C 1.566341 4.503576 14.415948
C 5.145140 0.849720 5.152703
C 6.396977 1.580561 5.071148
C 4.024604 1.631417 1.924774
C 6.527044 0.220939 1.894490
C 5.145140 0.849720 11.482599
C 6.396977 1.580561 11.401043
C 4.024604 1.631417 8.254669
C 6.527044 0.220939 8.224386
C 5.145140 0.849720 17.812494
C 6.396977 1.580561 17.730938
C 4.024604 1.631417 14.584564
C 6.527044 0.220939 14.554281
C 3.894537 2.991038 5.152703
C 5.146374 3.721879 5.071148
C 2.774001 3.772735 1.924774
C 5.276441 2.362257 1.894490
C 3.894537 2.991038 11.482599
C 5.146374 3.721879 11.401043
C 2.774001 3.772735 8.254669
C 5.276441 2.362257 8.224386
C 3.894537 2.991038 17.812494
C 5.146374 3.721879 17.730938
C 2.774001 3.772735 14.584564
C 5.276441 2.362257 14.554281
C 2.643934 5.132357 5.152703
C 3.895771 5.863197 5.071148
C 1.523398 5.914054 1.924774
C 4.025839 4.503576 1.894490
C 2.643934 5.132357 11.482599
C 3.895771 5.863197 11.401043
C 1.523398 5.914054 8.254669
C 4.025839 4.503576 8.224386
C 2.643934 5.132357 17.812494
C 3.895771 5.863197 17.730938
C 1.523398 5.914054 14.584564
C 4.025839 4.503576 14.554281
