108
A
C 0.094479 0.781947 4.449140
C 1.372545 1.541694 4.344355
C -0.844275 1.675755 1.584927
C 1.709851 0.290536 1.508038
C 0.094479 0.781947 10.028338
C 1.372545 1.541694 9.923553
C -0.844275 1.675755 7.164125
C 1.709851 0.290536 7.087236
C 0.094479 0.781947 15.607536
C 1.372545 1.541694 15.502751
C -0.844275 1.675755 12.743323
C 1.709851 0.290536 12.666434
C -1.181581 2.926913 4.449140
C 0.096484 3.686660 4.344355
C -2.120335 3.820721 1.584927
C 0.433791 2.435502 1.508038
C -1.181581 2.926913 10.028338
C 0.096484 3.686660 9.923553
C -2.120335 3.820721 7.164125
C 0.433791 2.435502 7.087236
C -1.181581 2.926913 15.607536
C 0.096484 3.686660 15.502751
C -2.120335 3.820721 12.743323
C 0.433791 2.435502 12.666434
C -2.457642 5.071879 4.449140
C -1.179576 5.831626 4.344355
C -3.396395 5.965687 1.584927
C -0.842269 4.580468 1.508038
C -2.457642 5.071879 10.028338
C -1.179576 5.831626 9.923553
C -3.396395 5.965687 7.164125
C -0.842269 4.580468 7.087236
C -2.457642 5.071879 15.607536
C -1.179576 5.831626 15.502751
C -3.396395 5.965687 12.743323
C -0.842269 4.580468 12.666434
C 2.536840 0.781947 4.813173
C 3.814906 1.541694 4.708388
C 1.598086 1.675755 1.948960
C 4.152212 0.290536 1.872071
C 2.536840 0.781947 10.392371
C 3.814906 1.541694 10.287586
C 1.598086 1.675755 7.528158
C 4.152212 0.290536 7.451269
C 2.536840 0.781947 15.971569
C 3.814906 1.541694 15.866784
C 1.598086 1.675755 13.107356
C 4.152212 0.290536 13.030467
C 1.260779 2.926913 4.813173
C 2.538845 3.686660 4.708388
C 0.322026 3.820721 1.948960
C 2.876152 2.435502 1.872071
C 1.260779 2.926913 10.392371
C 2.538845 3.686660 10.287586
C 0.322026 3.820721 7.528158
C 2.876152 2.435502 7.451269
C 1.260779 2.926913 15.971569
C 2.538845 3.686660 15.866784
C 0.322026 3.820721 13.107356
C 2.876152 2.435502 13.030467
C -0.015281 5.071879 4.813173
C 1.262785 5.831626 4.708388
C -0.954035 5.965687 1.948960
C 1.600091 4.580468 1.872071
C -0.015281 5.071879 10.392371
C 1.262785 5.831626 10.287586
C -0.954035 5.965687 7.528158
C 1.600091 4.580468 7.451269
C -0.015281 5.071879 15.971569
C 1.262785 5.831626 15.866784
C -0.954035 5.965687 13.107356
C 1.600091 4.580468 13.030467
C 4.979201 0.781947 5.177206
C 6.257266 1.541694 5.072421
C 4.040447 1.675755 2.312993
C 6.594573 0.290536 2.236104
C 4.979201 0.781947 10.756404
C 6.257266 1.541694 10.651619
C 4.040447 1.675755 7.892191
C 6.594573 0.290536 7.815302
C 4.979201 0.781947 16.335602
C 6.257266 1.541694 16.230817
C 4.040447 1.675755 13.471389
C 6.594573 0.290536 13.394500
C 3.703140 2.926913 5.177206
C 4.981206 3.686660 5.072421
C 2.764386 3.820721 2.312993
C 5.318512 2.435502 2.236104
C 3.703140 2.926913 10.756404
C 4.981206 3.686660 10.651619
C 2.764386 3.820721 7.892191
C 5.318512 2.435502 7.815302
C 3.703140 2.926913 16.335602
C 4.981206 3.686660 16.230817
C 2.764386 3.820721 13.471389
C 5.318512 2.435502 13.394500
C 2.427080 5.071879 5.177206
C 3.705145 5.831626 5.072421
C 1.488326 5.965687 2.312993
C 4.042452 4.580468 2.236104
C 2.427080 5.071879 10.756404
C 3.705145 5.831626 10.651619
C 1.488326 5.965687 7.892191
C 4.042452 4.580468 7.815302
C 2.427080 5.071879 16.335602
C 3.705145 5.831626 16.230817
C 1.488326 5.965687 13.471389
C 4.042452 4.580468 13.394500
