108
A
C 1.235000 0.713170 1.714475
C 1.235000 2.139083 5.075525
C 0.000000 1.425913 5.109475
C 0.000000 0.000000 1.680525
C 1.235000 0.713170 8.504475
C 1.235000 2.139083 11.865525
C 0.000000 1.425913 11.899475
C 0.000000 0.000000 8.470525
C 1.235000 0.713170 15.294475
C 1.235000 2.139083 18.655525
C 0.000000 1.425913 18.689475
C 0.000000 0.000000 15.260525
C -0.000000 2.852253 1.714475
C -0.000000 4.278165 5.075525
C -1.235000 3.564995 5.109475
C -1.235000 2.139083 1.680525
C -0.000000 2.852253 8.504475
C -0.000000 4.278165 11.865525
C -1.235000 3.564995 11.899475
C -1.235000 2.139083 8.470525
C -0.000000 2.852253 15.294475
C -0.000000 4.278165 18.655525
C -1.235000 3.564995 18.689475
C -1.235000 2.139083 15.260525
C -1.235000 4.991336 1.714475
C -1.235000 6.417248 5.075525
C -2.470000 5.704078 5.109475
C -2.470000 4.278165 1.680525
C -1.235000 4.991336 8.504475
C -1.235000 6.417248 11.865525
C -2.470000 5.704078 11.899475
C -2.470000 4.278165 8.470525
C -1.235000 4.991336 15.294475
C -1.235000 6.417248 18.655525
C -2.470000 5.704078 18.689475
C -2.470000 4.278165 15.260525
C 3.705000 0.713170 1.714475
C 3.705000 2.139083 5.075525
C 2.470000 1.425913 5.109475
C 2.470000 0.000000 1.680525
C 3.705000 0.713170 8.504475
C 3.705000 2.139083 11.865525
C 2.470000 1.425913 11.899475
C 2.470000 0.000000 8.470525
C 3.705000 0.713170 15.294475
C 3.705000 2.139083 18.655525
C 2.470000 1.425913 18.689475
C 2.470000 0.000000 15.260525
C 2.470000 2.852253 1.714475
C 2.470000 4.278165 5.075525
C 1.235000 3.564995 5.109475
C 1.235000 2.139083 1.680525
C 2.470000 2.852253 8.504475
C 2.470000 4.278165 11.865525
C 1.235000 3.564995 11.899475
C 1.235000 2.139083 8.470525
C 2.470000 2.852253 15.294475
C 2.470000 4.278165 18.655525
C 1.235000 3.564995 18.689475
C 1.235000 2.139083 15.260525
C 1.235000 4.991336 1.714475
C 1.235000 6.417248 5.075525
C -0.000000 5.704078 5.109475
C -0.000000 4.278165 1.680525
C 1.235000 4.991336 8.504475
C 1.235000 6.417248 11.865525
C -0.000000 5.704078 11.899475
C -0.000000 4.278165 8.470525
C 1.235000 4.991336 15.294475
C 1.235000 6.417248 18.655525
C -0.000000 5.704078 18.689475
C -0.000000 4.278165 15.260525
C 6.175000 0.713170 1.714475
C 6.175000 2.139083 5.075525
C 4.940000 1.425913 5.109475
C 4.940000 0.000000 1.680525
C 6.175000 0.713170 8.504475
C 6.175000 2.139083 11.865525
C 4.940000 1.425913 11.899475
C 4.940000 0.000000 8.470525
C 6.175000 0.713170 15.294475
C 6.175000 2.139083 18.655525
C 4.940000 1.425913 18.689475
C 4.940000 0.000000 15.260525
C 4.940000 2.852253 1.714475
C 4.940000 4.278165 5.075525
C 3.705000 3.564995 5.109475
C 3.705000 2.139083 1.680525
C 4.940000 2.852253 8.504475
C 4.940000 4.278165 11.865525
C 3.705000 3.564995 11.899475
C 3.705000 2.139083 8.470525
C 4.940000 2.852253 15.294475
C 4.940000 4.278165 18.655525
C 3.705000 3.564995 18.689475
C 3.705000 2.139083 15.260525
C 3.705000 4.991336 1.714475
C 3.705000 6.417248 5.075525
C 2.470000 5.704078 5.109475
C 2.470000 4.278165 1.680525
C 3.705000 4.991336 8.504475
C 3.705000 6.417248 11.865525
C 2.470000 5.704078 11.899475
C 2.470000 4.278165 8.470525
C 3.705000 4.991336 15.294475
C 3.705000 6.417248 18.655525
C 2.470000 5.704078 18.689475
C 2.470000 4.278165 15.260525
