108
A
C 1.817375 0.644880 1.431201
C 1.842609 1.934577 2.554598
C 0.537397 1.827422 3.424100
C 0.512163 0.537726 0.561699
C 1.817375 0.644880 5.416999
C 1.842609 1.934577 6.540397
C 0.537397 1.827422 7.409899
C 0.512163 0.537726 4.547497
C 1.817375 0.644880 9.402798
C 1.842609 1.934577 10.526195
C 0.537397 1.827422 11.395697
C 0.512163 0.537726 8.533296
C 1.656825 3.117183 1.431201
C 1.682059 4.406880 2.554598
C 0.376847 4.299725 3.424100
C 0.351613 3.010029 0.561699
C 1.656825 3.117183 5.416999
C 1.682059 4.406880 6.540397
C 0.376847 4.299725 7.409899
C 0.351613 3.010029 4.547497
C 1.656825 3.117183 9.402798
C 1.682059 4.406880 10.526195
C 0.376847 4.299725 11.395697
C 0.351613 3.010029 8.533296
C 1.496275 5.589486 1.431201
C 1.521509 6.879183 2.554598
C 0.216297 6.772028 3.424100
C 0.191063 5.482332 0.561699
C 1.496275 5.589486 5.416999
C 1.521509 6.879183 6.540397
C 0.216297 6.772028 7.409899
C 0.191063 5.482332 4.547497
C 1.496275 5.589486 9.402798
C 1.521509 6.879183 10.526195
C 0.216297 6.772028 11.395697
C 0.191063 5.482332 8.533296
C 4.332697 0.644880 1.431201
C 4.357931 1.934577 2.554598
C 3.052719 1.827422 3.424100
C 3.027485 0.537726 0.561699
C 4.332697 0.644880 5.416999
C 4.357931 1.934577 6.540397
C 3.052719 1.827422 7.409899
C 3.027485 0.537726 4.547497
C 4.332697 0.644880 9.402798
C 4.357931 1.934577 10.526195
C 3.052719 1.827422 11.395697
C 3.027485 0.537726 8.533296
C 4.172147 3.117183 1.431201
C 4.197381 4.406880 2.554598
C 2.892169 4.299725 3.424100
C 2.866935 3.010029 0.561699
C 4.172147 3.117183 5.416999
C 4.197381 4.406880 6.540397
C 2.892169 4.299725 7.409899
C 2.866935 3.010029 4.547497
C 4.172147 3.117183 9.402798
C 4.197381 4.406880 10.526195
C 2.892169 4.299725 11.395697
C 2.866935 3.010029 8.533296
C 4.011597 5.589486 1.431201
C 4.036831 6.879183 2.554598
C 2.731619 6.772028 3.424100
C 2.706385 5.482332 0.561699
C 4.011597 5.589486 5.416999
C 4.036831 6.879183 6.540397
C 2.731619 6.772028 7.409899
C 2.706385 5.482332 4.547497
C 4.011597 5.589486 9.402798
C 4.036831 6.879183 10.526195
C 2.731619 6.772028 11.395697
C 2.706385 5.482332 8.533296
C 6.848019 0.644880 1.431201
C 6.873253 1.934577 2.554598
C 5.568041 1.827422 3.424100
C 5.542807 0.537726 0.561699
C 6.848019 0.644880 5.416999
C 6.873253 1.934577 6.540397
C 5.568041 1.827422 7.409899
C 5.542807 0.537726 4.547497
C 6.848019 0.644880 9.402798
C 6.873253 1.934577 10.526195
C 5.568041 1.827422 11.395697
C 5.542807 0.537726 8.533296
C 6.687469 3.117183 1.431201
C 6.712703 4.406880 2.554598
C 5.407491 4.299725 3.424100
C 5.382257 3.010029 0.561699
C 6.687469 3.117183 5.416999
C 6.712703 4.406880 6.540397
C 5.407491 4.299725 7.409899
C 5.382257 3.010029 4.547497
C 6.687469 3.117183 9.402798
C 6.712703 4.406880 10.526195
C 5.407491 4.299725 11.395697
C 5.382257 3.010029 8.533296
C 6.526919 5.589486 1.431201
C 6.552153 6.879183 2.554598
C 5.246941 6.772028 3.424100
C 5.221707 5.482332 0.561699
C 6.526919 5.589486 5.416999
C 6.552153 6.879183 6.540397
C 5.246941 6.772028 7.409899
C 5.221707 5.482332 4.547497
C 6.526919 5.589486 9.402798
C 6.552153 6.879183 10.526195
C 5.246941 6.772028 11.395697
C 5.221707 5.482332 8.533296
