108
A
C -0.097789 0.678746 3.693045
C 1.217102 1.482498 3.681806
C -0.772708 1.743246 1.464796
C 1.856840 0.396502 1.454888
C -0.097789 0.678746 8.134089
C 1.217102 1.482498 8.122849
C -0.772708 1.743246 5.905839
C 1.856840 0.396502 5.895932
C -0.097789 0.678746 12.575133
C 1.217102 1.482498 12.563893
C -0.772708 1.743246 10.346883
C 1.856840 0.396502 10.336976
C -1.412446 2.829242 3.693045
C -0.097555 3.632995 3.681806
C -2.087365 3.893742 1.464796
C 0.542183 2.546998 1.454888
C -1.412446 2.829242 8.134089
C -0.097555 3.632995 8.122849
C -2.087365 3.893742 5.905839
C 0.542183 2.546998 5.895932
C -1.412446 2.829242 12.575133
C -0.097555 3.632995 12.563893
C -2.087365 3.893742 10.346883
C 0.542183 2.546998 10.336976
C -2.727103 4.979739 3.693045
C -1.412212 5.783491 3.681806
C -3.402022 6.044239 1.464796
C -0.772475 4.697495 1.454888
C -2.727103 4.979739 8.134089
C -1.412212 5.783491 8.122849
C -3.402022 6.044239 5.905839
C -0.772475 4.697495 5.895932
C -2.727103 4.979739 12.575133
C -1.412212 5.783491 12.563893
C -3.402022 6.044239 10.346883
C -0.772475 4.697495 10.336976
C 2.318591 0.678746 4.399269
C 3.633482 1.482498 4.388030
C 1.643672 1.743246 2.171020
C 4.273220 0.396502 2.161112
C 2.318591 0.678746 8.840313
C 3.633482 1.482498 8.829073
C 1.643672 1.743246 6.612063
C 4.273220 0.396502 6.602156
C 2.318591 0.678746 13.281357
C 3.633482 1.482498 13.270117
C 1.643672 1.743246 11.053107
C 4.273220 0.396502 11.043200
C 1.003934 2.829242 4.399269
C 2.318825 3.632995 4.388030
C 0.329015 3.893742 2.171020
C 2.958562 2.546998 2.161112
C 1.003934 2.829242 8.840313
C 2.318825 3.632995 8.829073
C 0.329015 3.893742 6.612063
C 2.958562 2.546998 6.602156
C 1.003934 2.829242 13.281357
C 2.318825 3.632995 13.270117
C 0.329015 3.893742 11.053107
C 2.958562 2.546998 11.043200
C -0.310723 4.979739 4.399269
C 1.004167 5.783491 4.388030
C -0.985642 6.044239 2.171020
C 1.643905 4.697495 2.161112
C -0.310723 4.979739 8.840313
C 1.004167 5.783491 8.829073
C -0.985642 6.044239 6.612063
C 1.643905 4.697495 6.602156
C -0.310723 4.979739 13.281357
C 1.004167 5.783491 13.270117
C -0.985642 6.044239 11.053107
C 1.643905 4.697495 11.043200
C 4.734971 0.678746 5.105493
C 6.049862 1.482498 5.094254
C 4.060052 1.743246 2.877244
C 6.689600 0.396502 2.867336
C 4.734971 0.678746 9.546537
C 6.049862 1.482498 9.535297
C 4.060052 1.743246 7.318287
C 6.689600 0.396502 7.308380
C 4.734971 0.678746 13.987580
C 6.049862 1.482498 13.976341
C 4.060052 1.743246 11.759331
C 6.689600 0.396502 11.749424
C 3.420314 2.829242 5.105493
C 4.735204 3.632995 5.094254
C 2.745395 3.893742 2.877244
C 5.374942 2.546998 2.867336
C 3.420314 2.829242 9.546537
C 4.735204 3.632995 9.535297
C 2.745395 3.893742 7.318287
C 5.374942 2.546998 7.308380
C 3.420314 2.829242 13.987580
C 4.735204 3.632995 13.976341
C 2.745395 3.893742 11.759331
C 5.374942 2.546998 11.749424
C 2.105657 4.979739 5.105493
C 3.420547 5.783491 5.094254
C 1.430737 6.044239 2.877244
C 4.060285 4.697495 2.867336
C 2.105657 4.979739 9.546537
C 3.420547 5.783491 9.535297
C 1.430737 6.044239 7.318287
C 4.060285 4.697495 7.308380
C 2.105657 4.979739 13.987580
C 3.420547 5.783491 13.976341
C 1.430737 6.044239 11.759331
C 4.060285 4.697495 11.749424
