108
A
C 1.257568 0.711620 1.714657
C 1.264061 2.134444 4.978646
C 0.016045 1.438953 5.061309
C 0.009552 0.016129 1.631995
C 1.257568 0.711620 8.407960
C 1.264061 2.134444 11.671950
C 0.016045 1.438953 11.754612
C 0.009552 0.016129 8.325298
C 1.257568 0.711620 15.101264
C 1.264061 2.134444 18.365253
C 0.016045 1.438953 18.447915
C 0.009552 0.016129 15.018602
C 0.059618 2.862193 1.714657
C 0.066111 4.285017 4.978646
C -1.181905 3.589526 5.061309
C -1.188398 2.166702 1.631995
C 0.059618 2.862193 8.407960
C 0.066111 4.285017 11.671950
C -1.181905 3.589526 11.754612
C -1.188398 2.166702 8.325298
C 0.059618 2.862193 15.101264
C 0.066111 4.285017 18.365253
C -1.181905 3.589526 18.447915
C -1.188398 2.166702 15.018602
C -1.138332 5.012767 1.714657
C -1.131839 6.435590 4.978646
C -2.379855 5.740099 5.061309
C -2.386348 4.317275 1.631995
C -1.138332 5.012767 8.407960
C -1.131839 6.435590 11.671950
C -2.379855 5.740099 11.754612
C -2.386348 4.317275 8.325298
C -1.138332 5.012767 15.101264
C -1.131839 6.435590 18.365253
C -2.379855 5.740099 18.447915
C -2.386348 4.317275 15.018602
C 3.729131 0.711620 1.714657
C 3.735624 2.134444 4.978646
C 2.487608 1.438953 5.061309
C 2.481115 0.016129 1.631995
C 3.729131 0.711620 8.407960
C 3.735624 2.134444 11.671950
C 2.487608 1.438953 11.754612
C 2.481115 0.016129 8.325298
C 3.729131 0.711620 15.101264
C 3.735624 2.134444 18.365253
C 2.487608 1.438953 18.447915
C 2.481115 0.016129 15.018602
C 2.531181 2.862193 1.714657
C 2.537674 4.285017 4.978646
C 1.289658 3.589526 5.061309
C 1.283165 2.166702 1.631995
C 2.531181 2.862193 8.407960
C 2.537674 4.285017 11.671950
C 1.289658 3.589526 11.754612
C 1.283165 2.166702 8.325298
C 2.531181 2.862193 15.101264
C 2.537674 4.285017 18.365253
C 1.289658 3.589526 18.447915
C 1.283165 2.166702 15.018602
C 1.333231 5.012767 1.714657
C 1.339724 6.435590 4.978646
C 0.091708 5.740099 5.061309
C 0.085215 4.317275 1.631995
C 1.333231 5.012767 8.407960
C 1.339724 6.435590 11.671950
C 0.091708 5.740099 11.754612
C 0.085215 4.317275 8.325298
C 1.333231 5.012767 15.101264
C 1.339724 6.435590 18.365253
C 0.091708 5.740099 18.447915
C 0.085215 4.317275 15.018602
C 6.200694 0.711620 1.714657
C 6.207186 2.134444 4.978646
C 4.959170 1.438953 5.061309
C 4.952678 0.016129 1.631995
C 6.200694 0.711620 8.407960
C 6.207186 2.134444 11.671950
C 4.959170 1.438953 11.754612
C 4.952678 0.016129 8.325298
C 6.200694 0.711620 15.101264
C 6.207186 2.134444 18.365253
C 4.959170 1.438953 18.447915
C 4.952678 0.016129 15.018602
C 5.002744 2.862193 1.714657
C 5.009236 4.285017 4.978646
C 3.761220 3.589526 5.061309
C 3.754728 2.166702 1.631995
C 5.002744 2.862193 8.407960
C 5.009236 4.285017 11.671950
C 3.761220 3.589526 11.754612
C 3.754728 2.166702 8.325298
C 5.002744 2.862193 15.101264
C 5.009236 4.285017 18.365253
C 3.761220 3.589526 18.447915
C 3.754728 2.166702 15.018602
C 3.804794 5.012767 1.714657
C 3.811286 6.435590 4.978646
C 2.563270 5.740099 5.061309
C 2.556778 4.317275 1.631995
C 3.804794 5.012767 8.407960
C 3.811286 6.435590 11.671950
C 2.563270 5.740099 11.754612
C 2.556778 4.317275 8.325298
C 3.804794 5.012767 15.101264
C 3.811286 6.435590 18.365253
C 2.563270 5.740099 18.447915
C 2.556778 4.317275 15.018602
