108
A
C 0.140758 0.806023 4.607153
C 1.409693 1.555502 4.502884
C -0.861793 1.660006 1.608807
C 1.674170 0.265813 1.540196
C 0.140758 0.806023 10.452728
C 1.409693 1.555502 10.348458
C -0.861793 1.660006 7.454382
C 1.674170 0.265813 7.385770
C 0.140758 0.806023 16.298302
C 1.409693 1.555502 16.194032
C -0.861793 1.660006 13.299956
C 1.674170 0.265813 13.231344
C -1.126269 2.949694 4.607153
C 0.142666 3.699173 4.502884
C -2.128820 3.803677 1.608807
C 0.407143 2.409485 1.540196
C -1.126269 2.949694 10.452728
C 0.142666 3.699173 10.348458
C -2.128820 3.803677 7.454382
C 0.407143 2.409485 7.385770
C -1.126269 2.949694 16.298302
C 0.142666 3.699173 16.194032
C -2.128820 3.803677 13.299956
C 0.407143 2.409485 13.231344
C -2.393296 5.093366 4.607153
C -1.124361 5.842845 4.502884
C -3.395847 5.947349 1.608807
C -0.859884 4.553157 1.540196
C -2.393296 5.093366 10.452728
C -1.124361 5.842845 10.348458
C -3.395847 5.947349 7.454382
C -0.859884 4.553157 7.385770
C -2.393296 5.093366 16.298302
C -1.124361 5.842845 16.194032
C -3.395847 5.947349 13.299956
C -0.859884 4.553157 13.231344
C 2.589199 0.806023 4.891099
C 3.858135 1.555502 4.786829
C 1.586649 1.660006 1.892753
C 4.122611 0.265813 1.824141
C 2.589199 0.806023 10.736673
C 3.858135 1.555502 10.632404
C 1.586649 1.660006 7.738327
C 4.122611 0.265813 7.669716
C 2.589199 0.806023 16.582247
C 3.858135 1.555502 16.477978
C 1.586649 1.660006 13.583901
C 4.122611 0.265813 13.515290
C 1.322172 2.949694 4.891099
C 2.591108 3.699173 4.786829
C 0.319622 3.803677 1.892753
C 2.855584 2.409485 1.824141
C 1.322172 2.949694 10.736673
C 2.591108 3.699173 10.632404
C 0.319622 3.803677 7.738327
C 2.855584 2.409485 7.669716
C 1.322172 2.949694 16.582247
C 2.591108 3.699173 16.477978
C 0.319622 3.803677 13.583901
C 2.855584 2.409485 13.515290
C 0.055145 5.093366 4.891099
C 1.324080 5.842845 4.786829
C -0.947405 5.947349 1.892753
C 1.588557 4.553157 1.824141
C 0.055145 5.093366 10.736673
C 1.324080 5.842845 10.632404
C -0.947405 5.947349 7.738327
C 1.588557 4.553157 7.669716
C 0.055145 5.093366 16.582247
C 1.324080 5.842845 16.477978
C -0.947405 5.947349 13.583901
C 1.588557 4.553157 13.515290
C 5.037641 0.806023 5.175045
C 6.306576 1.555502 5.070775
C 4.035090 1.660006 2.176699
C 6.571053 0.265813 2.108087
C 5.037641 0.806023 11.020619
C 6.306576 1.555502 10.916349
C 4.035090 1.660006 8.022273
C 6.571053 0.265813 7.953661
C 5.037641 0.806023 16.866193
C 6.306576 1.555502 16.761924
C 4.035090 1.660006 13.867847
C 6.571053 0.265813 13.799236
C 3.770614 2.949694 5.175045
C 5.039549 3.699173 5.070775
C 2.768063 3.803677 2.176699
C 5.304025 2.409485 2.108087
C 3.770614 2.949694 11.020619
C 5.039549 3.699173 10.916349
C 2.768063 3.803677 8.022273
C 5.304025 2.409485 7.953661
C 3.770614 2.949694 16.866193
C 5.039549 3.699173 16.761924
C 2.768063 3.803677 13.867847
C 5.304025 2.409485 13.799236
C 2.503587 5.093366 5.175045
C 3.772522 5.842845 5.070775
C 1.501036 5.947349 2.176699
C 4.036998 4.553157 2.108087
C 2.503587 5.093366 11.020619
C 3.772522 5.842845 10.916349
C 1.501036 5.947349 8.022273
C 4.036998 4.553157 7.953661
C 2.503587 5.093366 16.866193
C 3.772522 5.842845 16.761924
C 1.501036 5.947349 13.867847
C 4.036998 4.553157 13.799236
