108
A
C -0.012977 0.724924 4.047089
C 1.285898 1.508988 3.974874
C -0.804027 1.713050 1.522097
C 1.792260 0.349088 1.461762
C -0.012977 0.724924 8.996669
C 1.285898 1.508988 8.924455
C -0.804027 1.713050 6.471677
C 1.792260 0.349088 6.411342
C -0.012977 0.724924 13.946250
C 1.285898 1.508988 13.874036
C -0.804027 1.713050 11.421258
C 1.792260 0.349088 11.360923
C -1.310389 2.872949 4.047089
C -0.011514 3.657013 3.974874
C -2.101439 3.861075 1.522097
C 0.494848 2.497114 1.461762
C -1.310389 2.872949 8.996669
C -0.011514 3.657013 8.924455
C -2.101439 3.861075 6.471677
C 0.494848 2.497114 6.411342
C -1.310389 2.872949 13.946250
C -0.011514 3.657013 13.874036
C -2.101439 3.861075 11.421258
C 0.494848 2.497114 11.360923
C -2.607801 5.020975 4.047089
C -1.308926 5.805038 3.974874
C -3.398851 6.009101 1.522097
C -0.802564 4.645139 1.461762
C -2.607801 5.020975 8.996669
C -1.308926 5.805038 8.924455
C -3.398851 6.009101 6.471677
C -0.802564 4.645139 6.411342
C -2.607801 5.020975 13.946250
C -1.308926 5.805038 13.874036
C -3.398851 6.009101 11.421258
C -0.802564 4.645139 11.360923
C 2.415011 0.724924 4.600419
C 3.713886 1.508988 4.528204
C 1.623961 1.713050 2.075427
C 4.220248 0.349088 2.015092
C 2.415011 0.724924 9.549999
C 3.713886 1.508988 9.477785
C 1.623961 1.713050 7.025008
C 4.220248 0.349088 6.964672
C 2.415011 0.724924 14.499580
C 3.713886 1.508988 14.427366
C 1.623961 1.713050 11.974588
C 4.220248 0.349088 11.914253
C 1.117599 2.872949 4.600419
C 2.416474 3.657013 4.528204
C 0.326549 3.861075 2.075427
C 2.922836 2.497114 2.015092
C 1.117599 2.872949 9.549999
C 2.416474 3.657013 9.477785
C 0.326549 3.861075 7.025008
C 2.922836 2.497114 6.964672
C 1.117599 2.872949 14.499580
C 2.416474 3.657013 14.427366
C 0.326549 3.861075 11.974588
C 2.922836 2.497114 11.914253
C -0.179812 5.020975 4.600419
C 1.119062 5.805038 4.528204
C -0.970862 6.009101 2.075427
C 1.625424 4.645139 2.015092
C -0.179812 5.020975 9.549999
C 1.119062 5.805038 9.477785
C -0.970862 6.009101 7.025008
C 1.625424 4.645139 6.964672
C -0.179812 5.020975 14.499580
C 1.119062 5.805038 14.427366
C -0.970862 6.009101 11.974588
C 1.625424 4.645139 11.914253
C 4.842999 0.724924 5.153749
C 6.141874 1.508988 5.081535
C 4.051950 1.713050 2.628757
C 6.648236 0.349088 2.568422
C 4.842999 0.724924 10.103329
C 6.141874 1.508988 10.031115
C 4.051950 1.713050 7.578338
C 6.648236 0.349088 7.518002
C 4.842999 0.724924 15.052910
C 6.141874 1.508988 14.980696
C 4.051950 1.713050 12.527918
C 6.648236 0.349088 12.467583
C 3.545588 2.872949 5.153749
C 4.844462 3.657013 5.081535
C 2.754538 3.861075 2.628757
C 5.350824 2.497114 2.568422
C 3.545588 2.872949 10.103329
C 4.844462 3.657013 10.031115
C 2.754538 3.861075 7.578338
C 5.350824 2.497114 7.518002
C 3.545588 2.872949 15.052910
C 4.844462 3.657013 14.980696
C 2.754538 3.861075 12.527918
C 5.350824 2.497114 12.467583
C 2.248176 5.020975 5.153749
C 3.547051 5.805038 5.081535
C 1.457126 6.009101 2.628757
C 4.053413 4.645139 2.568422
C 2.248176 5.020975 10.103329
C 3.547051 5.805038 10.031115
C 1.457126 6.009101 7.578338
C 4.053413 4.645139 7.518002
C 2.248176 5.020975 15.052910
C 3.547051 5.805038 14.980696
C 1.457126 6.009101 12.527918
C 4.053413 4.645139 12.467583
