108
A
C 1.338799 0.705446 1.709244
C 1.365661 2.115960 4.629505
C 0.076395 1.487259 4.878618
C 0.049532 0.076745 1.460131
C 1.338799 0.705446 8.047993
C 1.365661 2.115960 10.968255
C 0.076395 1.487259 11.217368
C 0.049532 0.076745 7.798880
C 1.338799 0.705446 14.386742
C 1.365661 2.115960 17.307004
C 0.076395 1.487259 17.556117
C 0.049532 0.076745 14.137629
C 0.276699 2.898150 1.709244
C 0.303561 4.308664 4.629505
C -0.985705 3.679963 4.878618
C -1.012568 2.269449 1.460131
C 0.276699 2.898150 8.047993
C 0.303561 4.308664 10.968255
C -0.985705 3.679963 11.217368
C -1.012568 2.269449 7.798880
C 0.276699 2.898150 14.386742
C 0.303561 4.308664 17.307004
C -0.985705 3.679963 17.556117
C -1.012568 2.269449 14.137629
C -0.785401 5.090854 1.709244
C -0.758539 6.501368 4.629505
C -2.047805 5.872667 4.878618
C -2.074668 4.462153 1.460131
C -0.785401 5.090854 8.047993
C -0.758539 6.501368 10.968255
C -2.047805 5.872667 11.217368
C -2.074668 4.462153 7.798880
C -0.785401 5.090854 14.386742
C -0.758539 6.501368 17.307004
C -2.047805 5.872667 17.556117
C -2.074668 4.462153 14.137629
C 3.816092 0.705446 1.709244
C 3.842955 2.115960 4.629505
C 2.553688 1.487259 4.878618
C 2.526825 0.076745 1.460131
C 3.816092 0.705446 8.047993
C 3.842955 2.115960 10.968255
C 2.553688 1.487259 11.217368
C 2.526825 0.076745 7.798880
C 3.816092 0.705446 14.386742
C 3.842955 2.115960 17.307004
C 2.553688 1.487259 17.556117
C 2.526825 0.076745 14.137629
C 2.753992 2.898150 1.709244
C 2.780855 4.308664 4.629505
C 1.491588 3.679963 4.878618
C 1.464725 2.269449 1.460131
C 2.753992 2.898150 8.047993
C 2.780855 4.308664 10.968255
C 1.491588 3.679963 11.217368
C 1.464725 2.269449 7.798880
C 2.753992 2.898150 14.386742
C 2.780855 4.308664 17.307004
C 1.491588 3.679963 17.556117
C 1.464725 2.269449 14.137629
C 1.691892 5.090854 1.709244
C 1.718755 6.501368 4.629505
C 0.429488 5.872667 4.878618
C 0.402625 4.462153 1.460131
C 1.691892 5.090854 8.047993
C 1.718755 6.501368 10.968255
C 0.429488 5.872667 11.217368
C 0.402625 4.462153 7.798880
C 1.691892 5.090854 14.386742
C 1.718755 6.501368 17.307004
C 0.429488 5.872667 17.556117
C 0.402625 4.462153 14.137629
C 6.293385 0.705446 1.709244
C 6.320248 2.115960 4.629505
C 5.030981 1.487259 4.878618
C 5.004118 0.076745 1.460131
C 6.293385 0.705446 8.047993
C 6.320248 2.115960 10.968255
C 5.030981 1.487259 11.217368
C 5.004118 0.076745 7.798880
C 6.293385 0.705446 14.386742
C 6.320248 2.115960 17.307004
C 5.030981 1.487259 17.556117
C 5.004118 0.076745 14.137629
C 5.231285 2.898150 1.709244
C 5.258148 4.308664 4.629505
C 3.968881 3.679963 4.878618
C 3.942018 2.269449 1.460131
C 5.231285 2.898150 8.047993
C 5.258148 4.308664 10.968255
C 3.968881 3.679963 11.217368
C 3.942018 2.269449 7.798880
C 5.231285 2.898150 14.386742
C 5.258148 4.308664 17.307004
C 3.968881 3.679963 17.556117
C 3.942018 2.269449 14.137629
C 4.169185 5.090854 1.709244
C 4.196048 6.501368 4.629505
C 2.906781 5.872667 4.878618
C 2.879918 4.462153 1.460131
C 4.169185 5.090854 8.047993
C 4.196048 6.501368 10.968255
C 2.906781 5.872667 11.217368
C 2.879918 4.462153 7.798880
C 4.169185 5.090854 14.386742
C 4.196048 6.501368 17.307004
C 2.906781 5.872667 17.556117
C 2.879918 4.462153 14.137629
