108
A
C 0.256410 0.864991 4.964536
C 1.502112 1.589317 4.897569
C -0.906027 1.621425 1.660609
C 1.584529 0.205256 1.650837
C 0.256410 0.864991 11.463943
C 1.502112 1.589317 11.396976
C -0.906027 1.621425 8.160017
C 1.584529 0.205256 8.150245
C 0.256410 0.864991 17.963351
C 1.502112 1.589317 17.896384
C -0.906027 1.621425 14.659424
C 1.584529 0.205256 14.649652
C -0.988444 3.005486 4.964536
C 0.257257 3.729812 4.897569
C -2.150881 3.761919 1.660609
C 0.339675 2.345751 1.650837
C -0.988444 3.005486 11.463943
C 0.257257 3.729812 11.396976
C -2.150881 3.761919 8.160017
C 0.339675 2.345751 8.150245
C -0.988444 3.005486 17.963351
C 0.257257 3.729812 17.896384
C -2.150881 3.761919 14.659424
C 0.339675 2.345751 14.649652
C -2.233299 5.145981 4.964536
C -0.987597 5.870307 4.897569
C -3.395736 5.902414 1.660609
C -0.905180 4.486246 1.650837
C -2.233299 5.145981 11.463943
C -0.987597 5.870307 11.396976
C -3.395736 5.902414 8.160017
C -0.905180 4.486246 8.150245
C -2.233299 5.145981 17.963351
C -0.987597 5.870307 17.896384
C -3.395736 5.902414 14.659424
C -0.905180 4.486246 14.649652
C 2.719777 0.864991 5.051904
C 3.965478 1.589317 4.984937
C 1.557340 1.621425 1.747977
C 4.047896 0.205256 1.738205
C 2.719777 0.864991 11.551311
C 3.965478 1.589317 11.484344
C 1.557340 1.621425 8.247385
C 4.047896 0.205256 8.237612
C 2.719777 0.864991 18.050719
C 3.965478 1.589317 17.983752
C 1.557340 1.621425 14.746792
C 4.047896 0.205256 14.737020
C 1.474922 3.005486 5.051904
C 2.720624 3.729812 4.984937
C 0.312485 3.761919 1.747977
C 2.803041 2.345751 1.738205
C 1.474922 3.005486 11.551311
C 2.720624 3.729812 11.484344
C 0.312485 3.761919 8.247385
C 2.803041 2.345751 8.237612
C 1.474922 3.005486 18.050719
C 2.720624 3.729812 17.983752
C 0.312485 3.761919 14.746792
C 2.803041 2.345751 14.737020
C 0.230068 5.145981 5.051904
C 1.475769 5.870307 4.984937
C -0.932369 5.902414 1.747977
C 1.558187 4.486246 1.738205
C 0.230068 5.145981 11.551311
C 1.475769 5.870307 11.484344
C -0.932369 5.902414 8.247385
C 1.558187 4.486246 8.237612
C 0.230068 5.145981 18.050719
C 1.475769 5.870307 17.983752
C -0.932369 5.902414 14.746792
C 1.558187 4.486246 14.737020
C 5.183143 0.864991 5.139272
C 6.428845 1.589317 5.072305
C 4.020706 1.621425 1.835345
C 6.511262 0.205256 1.825573
C 5.183143 0.864991 11.638679
C 6.428845 1.589317 11.571712
C 4.020706 1.621425 8.334753
C 6.511262 0.205256 8.324980
C 5.183143 0.864991 18.138086
C 6.428845 1.589317 18.071119
C 4.020706 1.621425 14.834160
C 6.511262 0.205256 14.824388
C 3.938289 3.005486 5.139272
C 5.183990 3.729812 5.072305
C 2.775852 3.761919 1.835345
C 5.266408 2.345751 1.825573
C 3.938289 3.005486 11.638679
C 5.183990 3.729812 11.571712
C 2.775852 3.761919 8.334753
C 5.266408 2.345751 8.324980
C 3.938289 3.005486 18.138086
C 5.183990 3.729812 18.071119
C 2.775852 3.761919 14.834160
C 5.266408 2.345751 14.824388
C 2.693434 5.145981 5.139272
C 3.939136 5.870307 5.072305
C 1.530997 5.902414 1.835345
C 4.021553 4.486246 1.825573
C 2.693434 5.145981 11.638679
C 3.939136 5.870307 11.571712
C 1.530997 5.902414 8.334753
C 4.021553 4.486246 8.324980
C 2.693434 5.145981 18.138086
C 3.939136 5.870307 18.071119
C 1.530997 5.902414 14.834160
C 4.021553 4.486246 14.824388
