108
A
Zn 2.405038 0.556998 1.015355
Zn -1.316456 2.311332 3.454647
O 2.405038 0.556998 3.863228
O -1.316456 2.311332 1.423936
Zn 2.405038 0.556998 5.893938
Zn -1.316456 2.311332 8.333230
O 2.405038 0.556998 8.741811
O -1.316456 2.311332 6.302519
Zn 2.405038 0.556998 10.772521
Zn -1.316456 2.311332 13.211813
O 2.405038 0.556998 13.620394
O -1.316456 2.311332 11.181102
Zn 0.333606 3.425329 1.015355
Zn -3.387889 5.179662 3.454647
O 0.333606 3.425329 3.863228
O -3.387889 5.179662 1.423936
Zn 0.333606 3.425329 5.893938
Zn -3.387889 5.179662 8.333230
O 0.333606 3.425329 8.741811
O -3.387889 5.179662 6.302519
Zn 0.333606 3.425329 10.772521
Zn -3.387889 5.179662 13.211813
O 0.333606 3.425329 13.620394
O -3.387889 5.179662 11.181102
Zn -1.737827 6.293659 1.015355
Zn -5.459321 8.047993 3.454647
O -1.737827 6.293659 3.863228
O -5.459321 8.047993 1.423936
Zn -1.737827 6.293659 5.893938
Zn -5.459321 8.047993 8.333230
O -1.737827 6.293659 8.741811
O -5.459321 8.047993 6.302519
Zn -1.737827 6.293659 10.772521
Zn -5.459321 8.047993 13.211813
O -1.737827 6.293659 13.620394
O -5.459321 8.047993 11.181102
Zn 5.565054 0.556998 1.015355
Zn 1.843559 2.311332 3.454647
O 5.565054 0.556998 3.863228
O 1.843559 2.311332 1.423936
Zn 5.565054 0.556998 5.893938
Zn 1.843559 2.311332 8.333230
O 5.565054 0.556998 8.741811
O 1.843559 2.311332 6.302519
Zn 5.565054 0.556998 10.772521
Zn 1.843559 2.311332 13.211813
O 5.565054 0.556998 13.620394
O 1.843559 2.311332 11.181102
Zn 3.493621 3.425329 1.015355
Zn -0.227873 5.179662 3.454647
O 3.493621 3.425329 3.863228
O -0.227873 5.179662 1.423936
Zn 3.493621 3.425329 5.893938
Zn -0.227873 5.179662 8.333230
O 3.493621 3.425329 8.741811
O -0.227873 5.179662 6.302519
Zn 3.493621 3.425329 10.772521
Zn -0.227873 5.179662 13.211813
O 3.493621 3.425329 13.620394
O -0.227873 5.179662 11.181102
Zn 1.422188 6.293659 1.015355
Zn -2.299306 8.047993 3.454647
O 1.422188 6.293659 3.863228
O -2.299306 8.047993 1.423936
Zn 1.422188 6.293659 5.893938
Zn -2.299306 8.047993 8.333230
O 1.422188 6.293659 8.741811
O -2.299306 8.047993 6.302519
Zn 1.422188 6.293659 10.772521
Zn -2.299306 8.047993 13.211813
O 1.422188 6.293659 13.620394
O -2.299306 8.047993 11.181102
Zn 8.725069 0.556998 1.015355
Zn 5.003574 2.311332 3.454647
O 8.725069 0.556998 3.863228
O 5.003574 2.311332 1.423936
Zn 8.725069 0.556998 5.893938
Zn 5.003574 2.311332 8.333230
O 8.725069 0.556998 8.741811
O 5.003574 2.311332 6.302519
Zn 8.725069 0.556998 10.772521
Zn 5.003574 2.311332 13.211813
O 8.725069 0.556998 13.620394
O 5.003574 2.311332 11.181102
Zn 6.653636 3.425329 1.015355
Zn 2.932142 5.179662 3.454647
O 6.653636 3.425329 3.863228
O 2.932142 5.179662 1.423936
Zn 6.653636 3.425329 5.893938
Zn 2.932142 5.179662 8.333230
O 6.653636 3.425329 8.741811
O 2.932142 5.179662 6.302519
Zn 6.653636 3.425329 10.772521
Zn 2.932142 5.179662 13.211813
O 6.653636 3.425329 13.620394
O 2.932142 5.179662 11.181102
Zn 4.582203 6.293659 1.015355
Zn 0.860709 8.047993 3.454647
O 4.582203 6.293659 3.863228
O 0.860709 8.047993 1.423936
Zn 4.582203 6.293659 5.893938
Zn 0.860709 8.047993 8.333230
O 4.582203 6.293659 8.741811
O 0.860709 8.047993 6.302519
Zn 4.582203 6.293659 10.772521
Zn 0.860709 8.047993 13.211813
O 4.582203 6.293659 13.620394
O 0.860709 8.047993 11.181102
