108
A
Zn 2.350701 0.633899 1.037877
Zn -1.717049 2.280403 3.337883
O 2.350701 0.633899 3.562134
O -1.717049 2.280403 1.262128
Zn 2.350701 0.633899 5.637888
Zn -1.717049 2.280403 7.937894
O 2.350701 0.633899 8.162145
O -1.717049 2.280403 5.862139
Zn 2.350701 0.633899 10.237899
Zn -1.717049 2.280403 12.537905
O 2.350701 0.633899 12.762156
O -1.717049 2.280403 10.462150
Zn -0.099735 3.548200 1.037877
Zn -4.167485 5.194705 3.337883
O -0.099735 3.548200 3.562134
O -4.167485 5.194705 1.262128
Zn -0.099735 3.548200 5.637888
Zn -4.167485 5.194705 7.937894
O -0.099735 3.548200 8.162145
O -4.167485 5.194705 5.862139
Zn -0.099735 3.548200 10.237899
Zn -4.167485 5.194705 12.537905
O -0.099735 3.548200 12.762156
O -4.167485 5.194705 10.462150
Zn -2.550171 6.462502 1.037877
Zn -6.617921 8.109007 3.337883
O -2.550171 6.462502 3.562134
O -6.617921 8.109007 1.262128
Zn -2.550171 6.462502 5.637888
Zn -6.617921 8.109007 7.937894
O -2.550171 6.462502 8.162145
O -6.617921 8.109007 5.862139
Zn -2.550171 6.462502 10.237899
Zn -6.617921 8.109007 12.537905
O -2.550171 6.462502 12.762156
O -6.617921 8.109007 10.462150
Zn 5.434790 0.633899 1.037877
Zn 1.367040 2.280403 3.337883
O 5.434790 0.633899 3.562134
O 1.367040 2.280403 1.262128
Zn 5.434790 0.633899 5.637888
Zn 1.367040 2.280403 7.937894
O 5.434790 0.633899 8.162145
O 1.367040 2.280403 5.862139
Zn 5.434790 0.633899 10.237899
Zn 1.367040 2.280403 12.537905
O 5.434790 0.633899 12.762156
O 1.367040 2.280403 10.462150
Zn 2.984354 3.548200 1.037877
Zn -1.083396 5.194705 3.337883
O 2.984354 3.548200 3.562134
O -1.083396 5.194705 1.262128
Zn 2.984354 3.548200 5.637888
Zn -1.083396 5.194705 7.937894
O 2.984354 3.548200 8.162145
O -1.083396 5.194705 5.862139
Zn 2.984354 3.548200 10.237899
Zn -1.083396 5.194705 12.537905
O 2.984354 3.548200 12.762156
O -1.083396 5.194705 10.462150
Zn 0.533918 6.462502 1.037877
Zn -3.533832 8.109007 3.337883
O 0.533918 6.462502 3.562134
O -3.533832 8.109007 1.262128
Zn 0.533918 6.462502 5.637888
Zn -3.533832 8.109007 7.937894
O 0.533918 6.462502 8.162145
O -3.533832 8.109007 5.862139
Zn 0.533918 6.462502 10.237899
Zn -3.533832 8.109007 12.537905
O 0.533918 6.462502 12.762156
O -3.533832 8.109007 10.462150
Zn 8.518879 0.633899 1.037877
Zn 4.451128 2.280403 3.337883
O 8.518879 0.633899 3.562134
O 4.451128 2.280403 1.262128
Zn 8.518879 0.633899 5.637888
Zn 4.451128 2.280403 7.937894
O 8.518879 0.633899 8.162145
O 4.451128 2.280403 5.862139
Zn 8.518879 0.633899 10.237899
Zn 4.451128 2.280403 12.537905
O 8.518879 0.633899 12.762156
O 4.451128 2.280403 10.462150
Zn 6.068442 3.548200 1.037877
Zn 2.000692 5.194705 3.337883
O 6.068442 3.548200 3.562134
O 2.000692 5.194705 1.262128
Zn 6.068442 3.548200 5.637888
Zn 2.000692 5.194705 7.937894
O 6.068442 3.548200 8.162145
O 2.000692 5.194705 5.862139
Zn 6.068442 3.548200 10.237899
Zn 2.000692 5.194705 12.537905
O 6.068442 3.548200 12.762156
O 2.000692 5.194705 10.462150
Zn 3.618006 6.462502 1.037877
Zn -0.449744 8.109007 3.337883
O 3.618006 6.462502 3.562134
O -0.449744 8.109007 1.262128
Zn 3.618006 6.462502 5.637888
Zn -0.449744 8.109007 7.937894
O 3.618006 6.462502 8.162145
O -0.449744 8.109007 5.862139
Zn 3.618006 6.462502 10.237899
Zn -0.449744 8.109007 12.537905
O 3.618006 6.462502 12.762156
O -0.449744 8.109007 10.462150
