108
A
Zn 2.436816 0.471738 5.518512
Zn -0.828313 2.344053 8.116988
O 2.436816 0.471738 7.473865
O -0.828313 2.344053 10.072341
Zn 2.436816 0.471738 10.715463
Zn -0.828313 2.344053 13.313939
O 2.436816 0.471738 12.670816
O -0.828313 2.344053 15.269292
Zn 2.436816 0.471738 15.912414
Zn -0.828313 2.344053 18.510890
O 2.436816 0.471738 17.867767
O -0.828313 2.344053 20.466243
Zn 0.798530 3.287529 10.715463
Zn -2.466599 5.159845 13.313939
O 0.798530 3.287529 12.670816
O -2.466599 5.159845 15.269292
Zn 0.798530 3.287529 15.912414
Zn -2.466599 5.159845 18.510890
O 0.798530 3.287529 17.867767
O -2.466599 5.159845 20.466243
Zn 0.798530 3.287529 21.109365
Zn -2.466599 5.159845 23.707841
O 0.798530 3.287529 23.064718
O -2.466599 5.159845 25.663194
Zn -0.839756 6.103321 15.912414
Zn -4.104885 7.975636 18.510890
O -0.839756 6.103321 17.867767
O -4.104885 7.975636 20.466243
Zn -0.839756 6.103321 21.109365
Zn -4.104885 7.975636 23.707841
O -0.839756 6.103321 23.064718
O -4.104885 7.975636 25.663194
Zn -0.839756 6.103321 26.306316
Zn -4.104885 7.975636 28.904792
O -0.839756 6.103321 28.261669
O -4.104885 7.975636 30.860145
Zn 5.683604 0.471738 10.715463
Zn 2.418475 2.344053 13.313939
O 5.683604 0.471738 12.670816
O 2.418475 2.344053 15.269292
Zn 5.683604 0.471738 15.912414
Zn 2.418475 2.344053 18.510890
O 5.683604 0.471738 17.867767
O 2.418475 2.344053 20.466243
Zn 5.683604 0.471738 21.109365
Zn 2.418475 2.344053 23.707841
O 5.683604 0.471738 23.064718
O 2.418475 2.344053 25.663194
Zn 4.045318 3.287529 15.912414
Zn 0.780189 5.159845 18.510890
O 4.045318 3.287529 17.867767
O 0.780189 5.159845 20.466243
Zn 4.045318 3.287529 21.109365
Zn 0.780189 5.159845 23.707841
O 4.045318 3.287529 23.064718
O 0.780189 5.159845 25.663194
Zn 4.045318 3.287529 26.306316
Zn 0.780189 5.159845 28.904792
O 4.045318 3.287529 28.261669
O 0.780189 5.159845 30.860145
Zn 2.407032 6.103321 21.109365
Zn -0.858096 7.975636 23.707841
O 2.407032 6.103321 23.064718
O -0.858096 7.975636 25.663194
Zn 2.407032 6.103321 26.306316
Zn -0.858096 7.975636 28.904792
O 2.407032 6.103321 28.261669
O -0.858096 7.975636 30.860145
Zn 2.407032 6.103321 31.503267
Zn -0.858096 7.975636 34.101743
O 2.407032 6.103321 33.458620
O -0.858096 7.975636 36.057096
Zn 8.930392 0.471738 15.912414
Zn 5.665264 2.344053 18.510890
O 8.930392 0.471738 17.867767
O 5.665264 2.344053 20.466243
Zn 8.930392 0.471738 21.109365
Zn 5.665264 2.344053 23.707841
O 8.930392 0.471738 23.064718
O 5.665264 2.344053 25.663194
Zn 8.930392 0.471738 26.306316
Zn 5.665264 2.344053 28.904792
O 8.930392 0.471738 28.261669
O 5.665264 2.344053 30.860145
Zn 7.292106 3.287529 21.109365
Zn 4.026978 5.159845 23.707841
O 7.292106 3.287529 23.064718
O 4.026978 5.159845 25.663194
Zn 7.292106 3.287529 26.306316
Zn 4.026978 5.159845 28.904792
O 7.292106 3.287529 28.261669
O 4.026978 5.159845 30.860145
Zn 7.292106 3.287529 31.503267
Zn 4.026978 5.159845 34.101743
O 7.292106 3.287529 33.458620
O 4.026978 5.159845 36.057096
Zn 5.653821 6.103321 26.306316
Zn 2.388692 7.975636 28.904792
O 5.653821 6.103321 28.261669
O 2.388692 7.975636 30.860145
Zn 5.653821 6.103321 31.503267
Zn 2.388692 7.975636 34.101743
O 5.653821 6.103321 33.458620
O 2.388692 7.975636 36.057096
Zn 5.653821 6.103321 36.700218
Zn 2.388692 7.975636 39.298694
O 5.653821 6.103321 38.655571
O 2.388692 7.975636 41.254047
