108
A
Zn 2.350701 0.633899 4.712136
Zn -1.717049 2.280403 7.012142
O 2.350701 0.633899 6.787891
O -1.717049 2.280403 9.087897
Zn 2.350701 0.633899 9.312147
Zn -1.717049 2.280403 11.612153
O 2.350701 0.633899 11.387902
O -1.717049 2.280403 13.687908
Zn 2.350701 0.633899 13.912158
Zn -1.717049 2.280403 16.212164
O 2.350701 0.633899 15.987913
O -1.717049 2.280403 18.287919
Zn -0.099735 3.548200 9.312147
Zn -4.167485 5.194705 11.612153
O -0.099735 3.548200 11.387902
O -4.167485 5.194705 13.687908
Zn -0.099735 3.548200 13.912158
Zn -4.167485 5.194705 16.212164
O -0.099735 3.548200 15.987913
O -4.167485 5.194705 18.287919
Zn -0.099735 3.548200 18.512169
Zn -4.167485 5.194705 20.812175
O -0.099735 3.548200 20.587924
O -4.167485 5.194705 22.887930
Zn -2.550171 6.462502 13.912158
Zn -6.617921 8.109007 16.212164
O -2.550171 6.462502 15.987913
O -6.617921 8.109007 18.287919
Zn -2.550171 6.462502 18.512169
Zn -6.617921 8.109007 20.812175
O -2.550171 6.462502 20.587924
O -6.617921 8.109007 22.887930
Zn -2.550171 6.462502 23.112180
Zn -6.617921 8.109007 25.412186
O -2.550171 6.462502 25.187935
O -6.617921 8.109007 27.487941
Zn 5.434790 0.633899 9.312147
Zn 1.367040 2.280403 11.612153
O 5.434790 0.633899 11.387902
O 1.367040 2.280403 13.687908
Zn 5.434790 0.633899 13.912158
Zn 1.367040 2.280403 16.212164
O 5.434790 0.633899 15.987913
O 1.367040 2.280403 18.287919
Zn 5.434790 0.633899 18.512169
Zn 1.367040 2.280403 20.812175
O 5.434790 0.633899 20.587924
O 1.367040 2.280403 22.887930
Zn 2.984354 3.548200 13.912158
Zn -1.083396 5.194705 16.212164
O 2.984354 3.548200 15.987913
O -1.083396 5.194705 18.287919
Zn 2.984354 3.548200 18.512169
Zn -1.083396 5.194705 20.812175
O 2.984354 3.548200 20.587924
O -1.083396 5.194705 22.887930
Zn 2.984354 3.548200 23.112180
Zn -1.083396 5.194705 25.412186
O 2.984354 3.548200 25.187935
O -1.083396 5.194705 27.487941
Zn 0.533918 6.462502 18.512169
Zn -3.533832 8.109007 20.812175
O 0.533918 6.462502 20.587924
O -3.533832 8.109007 22.887930
Zn 0.533918 6.462502 23.112180
Zn -3.533832 8.109007 25.412186
O 0.533918 6.462502 25.187935
O -3.533832 8.109007 27.487941
Zn 0.533918 6.462502 27.712191
Zn -3.533832 8.109007 30.012197
O 0.533918 6.462502 29.787946
O -3.533832 8.109007 32.087952
Zn 8.518879 0.633899 13.912158
Zn 4.451128 2.280403 16.212164
O 8.518879 0.633899 15.987913
O 4.451128 2.280403 18.287919
Zn 8.518879 0.633899 18.512169
Zn 4.451128 2.280403 20.812175
O 8.518879 0.633899 20.587924
O 4.451128 2.280403 22.887930
Zn 8.518879 0.633899 23.112180
Zn 4.451128 2.280403 25.412186
O 8.518879 0.633899 25.187935
O 4.451128 2.280403 27.487941
Zn 6.068442 3.548200 18.512169
Zn 2.000692 5.194705 20.812175
O 6.068442 3.548200 20.587924
O 2.000692 5.194705 22.887930
Zn 6.068442 3.548200 23.112180
Zn 2.000692 5.194705 25.412186
O 6.068442 3.548200 25.187935
O 2.000692 5.194705 27.487941
Zn 6.068442 3.548200 27.712191
Zn 2.000692 5.194705 30.012197
O 6.068442 3.548200 29.787946
O 2.000692 5.194705 32.087952
Zn 3.618006 6.462502 23.112180
Zn -0.449744 8.109007 25.412186
O 3.618006 6.462502 25.187935
O -0.449744 8.109007 27.487941
Zn 3.618006 6.462502 27.712191
Zn -0.449744 8.109007 30.012197
O 3.618006 6.462502 29.787946
O -0.449744 8.109007 32.087952
Zn 3.618006 6.462502 32.312202
Zn -0.449744 8.109007 34.612208
O 3.618006 6.462502 34.387957
O -0.449744 8.109007 36.687963
