108
A
Zn 2.429540 0.500730 0.992065
Zn -0.999760 2.333121 3.535821
O 2.429540 0.500730 4.095447
O -0.999760 2.333121 1.551691
Zn 2.429540 0.500730 6.079577
Zn -0.999760 2.333121 8.623333
O 2.429540 0.500730 9.182959
O -0.999760 2.333121 6.639203
Zn 2.429540 0.500730 11.167089
Zn -0.999760 2.333121 13.710845
O 2.429540 0.500730 14.270471
O -0.999760 2.333121 11.726715
Zn 0.642360 3.334582 0.992065
Zn -2.786940 5.166973 3.535821
O 0.642360 3.334582 4.095447
O -2.786940 5.166973 1.551691
Zn 0.642360 3.334582 6.079577
Zn -2.786940 5.166973 8.623333
O 0.642360 3.334582 9.182959
O -2.786940 5.166973 6.639203
Zn 0.642360 3.334582 11.167089
Zn -2.786940 5.166973 13.710845
O 0.642360 3.334582 14.270471
O -2.786940 5.166973 11.726715
Zn -1.144820 6.168434 0.992065
Zn -4.574121 8.000825 3.535821
O -1.144820 6.168434 4.095447
O -4.574121 8.000825 1.551691
Zn -1.144820 6.168434 6.079577
Zn -4.574121 8.000825 8.623333
O -1.144820 6.168434 9.182959
O -4.574121 8.000825 6.639203
Zn -1.144820 6.168434 11.167089
Zn -4.574121 8.000825 13.710845
O -1.144820 6.168434 14.270471
O -4.574121 8.000825 11.726715
Zn 5.646500 0.500730 0.992065
Zn 2.217200 2.333121 3.535821
O 5.646500 0.500730 4.095447
O 2.217200 2.333121 1.551691
Zn 5.646500 0.500730 6.079577
Zn 2.217200 2.333121 8.623333
O 5.646500 0.500730 9.182959
O 2.217200 2.333121 6.639203
Zn 5.646500 0.500730 11.167089
Zn 2.217200 2.333121 13.710845
O 5.646500 0.500730 14.270471
O 2.217200 2.333121 11.726715
Zn 3.859320 3.334582 0.992065
Zn 0.430020 5.166973 3.535821
O 3.859320 3.334582 4.095447
O 0.430020 5.166973 1.551691
Zn 3.859320 3.334582 6.079577
Zn 0.430020 5.166973 8.623333
O 3.859320 3.334582 9.182959
O 0.430020 5.166973 6.639203
Zn 3.859320 3.334582 11.167089
Zn 0.430020 5.166973 13.710845
O 3.859320 3.334582 14.270471
O 0.430020 5.166973 11.726715
Zn 2.072140 6.168434 0.992065
Zn -1.357160 8.000825 3.535821
O 2.072140 6.168434 4.095447
O -1.357160 8.000825 1.551691
Zn 2.072140 6.168434 6.079577
Zn -1.357160 8.000825 8.623333
O 2.072140 6.168434 9.182959
O -1.357160 8.000825 6.639203
Zn 2.072140 6.168434 11.167089
Zn -1.357160 8.000825 13.710845
O 2.072140 6.168434 14.270471
O -1.357160 8.000825 11.726715
Zn 8.863461 0.500730 0.992065
Zn 5.434160 2.333121 3.535821
O 8.863461 0.500730 4.095447
O 5.434160 2.333121 1.551691
Zn 8.863461 0.500730 6.079577
Zn 5.434160 2.333121 8.623333
O 8.863461 0.500730 9.182959
O 5.434160 2.333121 6.639203
Zn 8.863461 0.500730 11.167089
Zn 5.434160 2.333121 13.710845
O 8.863461 0.500730 14.270471
O 5.434160 2.333121 11.726715
Zn 7.076280 3.334582 0.992065
Zn 3.646980 5.166973 3.535821
O 7.076280 3.334582 4.095447
O 3.646980 5.166973 1.551691
Zn 7.076280 3.334582 6.079577
Zn 3.646980 5.166973 8.623333
O 7.076280 3.334582 9.182959
O 3.646980 5.166973 6.639203
Zn 7.076280 3.334582 11.167089
Zn 3.646980 5.166973 13.710845
O 7.076280 3.334582 14.270471
O 3.646980 5.166973 11.726715
Zn 5.289100 6.168434 0.992065
Zn 1.859800 8.000825 3.535821
O 5.289100 6.168434 4.095447
O 1.859800 8.000825 1.551691
Zn 5.289100 6.168434 6.079577
Zn 1.859800 8.000825 8.623333
O 5.289100 6.168434 9.182959
O 1.859800 8.000825 6.639203
Zn 5.289100 6.168434 11.167089
Zn 1.859800 8.000825 13.710845
O 5.289100 6.168434 14.270471
O 1.859800 8.000825 11.726715
