108
A
Zn 2.382890 0.592435 1.027024
Zn -1.505525 2.297239 3.401647
O 2.382890 0.592435 3.722222
O -1.505525 2.297239 1.347599
Zn 2.382890 0.592435 5.776270
Zn -1.505525 2.297239 8.150893
O 2.382890 0.592435 8.471468
O -1.505525 2.297239 6.096845
Zn 2.382890 0.592435 10.525516
Zn -1.505525 2.297239 12.900139
O 2.382890 0.592435 13.220714
O -1.505525 2.297239 10.846091
Zn 0.135492 3.482110 1.027024
Zn -3.752924 5.186913 3.401647
O 0.135492 3.482110 3.722222
O -3.752924 5.186913 1.347599
Zn 0.135492 3.482110 5.776270
Zn -3.752924 5.186913 8.150893
O 0.135492 3.482110 8.471468
O -3.752924 5.186913 6.096845
Zn 0.135492 3.482110 10.525516
Zn -3.752924 5.186913 12.900139
O 0.135492 3.482110 13.220714
O -3.752924 5.186913 10.846091
Zn -2.111907 6.371784 1.027024
Zn -6.000322 8.076588 3.401647
O -2.111907 6.371784 3.722222
O -6.000322 8.076588 1.347599
Zn -2.111907 6.371784 5.776270
Zn -6.000322 8.076588 8.150893
O -2.111907 6.371784 8.471468
O -6.000322 8.076588 6.096845
Zn -2.111907 6.371784 10.525516
Zn -6.000322 8.076588 12.900139
O -2.111907 6.371784 13.220714
O -6.000322 8.076588 10.846091
Zn 5.507654 0.592435 1.027024
Zn 1.619238 2.297239 3.401647
O 5.507654 0.592435 3.722222
O 1.619238 2.297239 1.347599
Zn 5.507654 0.592435 5.776270
Zn 1.619238 2.297239 8.150893
O 5.507654 0.592435 8.471468
O 1.619238 2.297239 6.096845
Zn 5.507654 0.592435 10.525516
Zn 1.619238 2.297239 12.900139
O 5.507654 0.592435 13.220714
O 1.619238 2.297239 10.846091
Zn 3.260255 3.482110 1.027024
Zn -0.628160 5.186913 3.401647
O 3.260255 3.482110 3.722222
O -0.628160 5.186913 1.347599
Zn 3.260255 3.482110 5.776270
Zn -0.628160 5.186913 8.150893
O 3.260255 3.482110 8.471468
O -0.628160 5.186913 6.096845
Zn 3.260255 3.482110 10.525516
Zn -0.628160 5.186913 12.900139
O 3.260255 3.482110 13.220714
O -0.628160 5.186913 10.846091
Zn 1.012857 6.371784 1.027024
Zn -2.875559 8.076588 3.401647
O 1.012857 6.371784 3.722222
O -2.875559 8.076588 1.347599
Zn 1.012857 6.371784 5.776270
Zn -2.875559 8.076588 8.150893
O 1.012857 6.371784 8.471468
O -2.875559 8.076588 6.096845
Zn 1.012857 6.371784 10.525516
Zn -2.875559 8.076588 12.900139
O 1.012857 6.371784 13.220714
O -2.875559 8.076588 10.846091
Zn 8.632417 0.592435 1.027024
Zn 4.744002 2.297239 3.401647
O 8.632417 0.592435 3.722222
O 4.744002 2.297239 1.347599
Zn 8.632417 0.592435 5.776270
Zn 4.744002 2.297239 8.150893
O 8.632417 0.592435 8.471468
O 4.744002 2.297239 6.096845
Zn 8.632417 0.592435 10.525516
Zn 4.744002 2.297239 12.900139
O 8.632417 0.592435 13.220714
O 4.744002 2.297239 10.846091
Zn 6.385019 3.482110 1.027024
Zn 2.496603 5.186913 3.401647
O 6.385019 3.482110 3.722222
O 2.496603 5.186913 1.347599
Zn 6.385019 3.482110 5.776270
Zn 2.496603 5.186913 8.150893
O 6.385019 3.482110 8.471468
O 2.496603 5.186913 6.096845
Zn 6.385019 3.482110 10.525516
Zn 2.496603 5.186913 12.900139
O 6.385019 3.482110 13.220714
O 2.496603 5.186913 10.846091
Zn 4.137620 6.371784 1.027024
Zn 0.249205 8.076588 3.401647
O 4.137620 6.371784 3.722222
O 0.249205 8.076588 1.347599
Zn 4.137620 6.371784 5.776270
Zn 0.249205 8.076588 8.150893
O 4.137620 6.371784 8.471468
O 0.249205 8.076588 6.096845
Zn 4.137620 6.371784 10.525516
Zn 0.249205 8.076588 12.900139
O 4.137620 6.371784 13.220714
O 0.249205 8.076588 10.846091
