108
A
Zn 2.429540 0.500730 5.367325
Zn -0.999760 2.333121 7.911081
O 2.429540 0.500730 7.351455
O -0.999760 2.333121 9.895211
Zn 2.429540 0.500730 10.454837
Zn -0.999760 2.333121 12.998593
O 2.429540 0.500730 12.438967
O -0.999760 2.333121 14.982723
Zn 2.429540 0.500730 15.542349
Zn -0.999760 2.333121 18.086105
O 2.429540 0.500730 17.526479
O -0.999760 2.333121 20.070235
Zn 0.642360 3.334582 10.454837
Zn -2.786940 5.166973 12.998593
O 0.642360 3.334582 12.438967
O -2.786940 5.166973 14.982723
Zn 0.642360 3.334582 15.542349
Zn -2.786940 5.166973 18.086105
O 0.642360 3.334582 17.526479
O -2.786940 5.166973 20.070235
Zn 0.642360 3.334582 20.629861
Zn -2.786940 5.166973 23.173617
O 0.642360 3.334582 22.613991
O -2.786940 5.166973 25.157747
Zn -1.144820 6.168434 15.542349
Zn -4.574121 8.000825 18.086105
O -1.144820 6.168434 17.526479
O -4.574121 8.000825 20.070235
Zn -1.144820 6.168434 20.629861
Zn -4.574121 8.000825 23.173617
O -1.144820 6.168434 22.613991
O -4.574121 8.000825 25.157747
Zn -1.144820 6.168434 25.717373
Zn -4.574121 8.000825 28.261129
O -1.144820 6.168434 27.701503
O -4.574121 8.000825 30.245259
Zn 5.646500 0.500730 10.454837
Zn 2.217200 2.333121 12.998593
O 5.646500 0.500730 12.438967
O 2.217200 2.333121 14.982723
Zn 5.646500 0.500730 15.542349
Zn 2.217200 2.333121 18.086105
O 5.646500 0.500730 17.526479
O 2.217200 2.333121 20.070235
Zn 5.646500 0.500730 20.629861
Zn 2.217200 2.333121 23.173617
O 5.646500 0.500730 22.613991
O 2.217200 2.333121 25.157747
Zn 3.859320 3.334582 15.542349
Zn 0.430020 5.166973 18.086105
O 3.859320 3.334582 17.526479
O 0.430020 5.166973 20.070235
Zn 3.859320 3.334582 20.629861
Zn 0.430020 5.166973 23.173617
O 3.859320 3.334582 22.613991
O 0.430020 5.166973 25.157747
Zn 3.859320 3.334582 25.717373
Zn 0.430020 5.166973 28.261129
O 3.859320 3.334582 27.701503
O 0.430020 5.166973 30.245259
Zn 2.072140 6.168434 20.629861
Zn -1.357160 8.000825 23.173617
O 2.072140 6.168434 22.613991
O -1.357160 8.000825 25.157747
Zn 2.072140 6.168434 25.717373
Zn -1.357160 8.000825 28.261129
O 2.072140 6.168434 27.701503
O -1.357160 8.000825 30.245259
Zn 2.072140 6.168434 30.804885
Zn -1.357160 8.000825 33.348641
O 2.072140 6.168434 32.789015
O -1.357160 8.000825 35.332771
Zn 8.863461 0.500730 15.542349
Zn 5.434160 2.333121 18.086105
O 8.863461 0.500730 17.526479
O 5.434160 2.333121 20.070235
Zn 8.863461 0.500730 20.629861
Zn 5.434160 2.333121 23.173617
O 8.863461 0.500730 22.613991
O 5.434160 2.333121 25.157747
Zn 8.863461 0.500730 25.717373
Zn 5.434160 2.333121 28.261129
O 8.863461 0.500730 27.701503
O 5.434160 2.333121 30.245259
Zn 7.076280 3.334582 20.629861
Zn 3.646980 5.166973 23.173617
O 7.076280 3.334582 22.613991
O 3.646980 5.166973 25.157747
Zn 7.076280 3.334582 25.717373
Zn 3.646980 5.166973 28.261129
O 7.076280 3.334582 27.701503
O 3.646980 5.166973 30.245259
Zn 7.076280 3.334582 30.804885
Zn 3.646980 5.166973 33.348641
O 7.076280 3.334582 32.789015
O 3.646980 5.166973 35.332771
Zn 5.289100 6.168434 25.717373
Zn 1.859800 8.000825 28.261129
O 5.289100 6.168434 27.701503
O 1.859800 8.000825 30.245259
Zn 5.289100 6.168434 30.804885
Zn 1.859800 8.000825 33.348641
O 5.289100 6.168434 32.789015
O 1.859800 8.000825 35.332771
Zn 5.289100 6.168434 35.892397
Zn 1.859800 8.000825 38.436153
O 5.289100 6.168434 37.876527
O 1.859800 8.000825 40.420283
