108
A
Zn 2.284417 0.701520 1.049422
Zn -2.040704 2.252186 3.230040
O 2.284417 0.701520 3.311813
O -2.040704 2.252186 1.131195
Zn 2.284417 0.701520 5.410657
Zn -2.040704 2.252186 7.591275
O 2.284417 0.701520 7.673048
O -2.040704 2.252186 5.492430
Zn 2.284417 0.701520 9.771892
Zn -2.040704 2.252186 11.952510
O 2.284417 0.701520 12.034283
O -2.040704 2.252186 9.853665
Zn -0.490879 3.655226 1.049422
Zn -4.816001 5.205892 3.230040
O -0.490879 3.655226 3.311813
O -4.816001 5.205892 1.131195
Zn -0.490879 3.655226 5.410657
Zn -4.816001 5.205892 7.591275
O -0.490879 3.655226 7.673048
O -4.816001 5.205892 5.492430
Zn -0.490879 3.655226 9.771892
Zn -4.816001 5.205892 11.952510
O -0.490879 3.655226 12.034283
O -4.816001 5.205892 9.853665
Zn -3.266175 6.608932 1.049422
Zn -7.591297 8.159598 3.230040
O -3.266175 6.608932 3.311813
O -7.591297 8.159598 1.131195
Zn -3.266175 6.608932 5.410657
Zn -7.591297 8.159598 7.591275
O -3.266175 6.608932 7.673048
O -7.591297 8.159598 5.492430
Zn -3.266175 6.608932 9.771892
Zn -7.591297 8.159598 11.952510
O -3.266175 6.608932 12.034283
O -7.591297 8.159598 9.853665
Zn 5.303426 0.701520 1.049422
Zn 0.978304 2.252186 3.230040
O 5.303426 0.701520 3.311813
O 0.978304 2.252186 1.131195
Zn 5.303426 0.701520 5.410657
Zn 0.978304 2.252186 7.591275
O 5.303426 0.701520 7.673048
O 0.978304 2.252186 5.492430
Zn 5.303426 0.701520 9.771892
Zn 0.978304 2.252186 11.952510
O 5.303426 0.701520 12.034283
O 0.978304 2.252186 9.853665
Zn 2.528129 3.655226 1.049422
Zn -1.796992 5.205892 3.230040
O 2.528129 3.655226 3.311813
O -1.796992 5.205892 1.131195
Zn 2.528129 3.655226 5.410657
Zn -1.796992 5.205892 7.591275
O 2.528129 3.655226 7.673048
O -1.796992 5.205892 5.492430
Zn 2.528129 3.655226 9.771892
Zn -1.796992 5.205892 11.952510
O 2.528129 3.655226 12.034283
O -1.796992 5.205892 9.853665
Zn -0.247167 6.608932 1.049422
Zn -4.572288 8.159598 3.230040
O -0.247167 6.608932 3.311813
O -4.572288 8.159598 1.131195
Zn -0.247167 6.608932 5.410657
Zn -4.572288 8.159598 7.591275
O -0.247167 6.608932 7.673048
O -4.572288 8.159598 5.492430
Zn -0.247167 6.608932 9.771892
Zn -4.572288 8.159598 11.952510
O -0.247167 6.608932 12.034283
O -4.572288 8.159598 9.853665
Zn 8.322434 0.701520 1.049422
Zn 3.997313 2.252186 3.230040
O 8.322434 0.701520 3.311813
O 3.997313 2.252186 1.131195
Zn 8.322434 0.701520 5.410657
Zn 3.997313 2.252186 7.591275
O 8.322434 0.701520 7.673048
O 3.997313 2.252186 5.492430
Zn 8.322434 0.701520 9.771892
Zn 3.997313 2.252186 11.952510
O 8.322434 0.701520 12.034283
O 3.997313 2.252186 9.853665
Zn 5.547138 3.655226 1.049422
Zn 1.222017 5.205892 3.230040
O 5.547138 3.655226 3.311813
O 1.222017 5.205892 1.131195
Zn 5.547138 3.655226 5.410657
Zn 1.222017 5.205892 7.591275
O 5.547138 3.655226 7.673048
O 1.222017 5.205892 5.492430
Zn 5.547138 3.655226 9.771892
Zn 1.222017 5.205892 11.952510
O 5.547138 3.655226 12.034283
O 1.222017 5.205892 9.853665
Zn 2.771842 6.608932 1.049422
Zn -1.553279 8.159598 3.230040
O 2.771842 6.608932 3.311813
O -1.553279 8.159598 1.131195
Zn 2.771842 6.608932 5.410657
Zn -1.553279 8.159598 7.591275
O 2.771842 6.608932 7.673048
O -1.553279 8.159598 5.492430
Zn 2.771842 6.608932 9.771892
Zn -1.553279 8.159598 11.952510
O 2.771842 6.608932 12.034283
O -1.553279 8.159598 9.853665
