108
A
Zn 2.403524 0.559708 1.016327
Zn -1.331189 2.310264 3.450644
O 2.403524 0.559708 3.852307
O -1.331189 2.310264 1.417990
Zn 2.403524 0.559708 5.884961
Zn -1.331189 2.310264 8.319278
O 2.403524 0.559708 8.720941
O -1.331189 2.310264 6.286624
Zn 2.403524 0.559708 10.753595
Zn -1.331189 2.310264 13.187912
O 2.403524 0.559708 13.589575
O -1.331189 2.310264 11.155258
Zn 0.318556 3.429680 1.016327
Zn -3.416158 5.180237 3.450644
O 0.318556 3.429680 3.852307
O -3.416158 5.180237 1.417990
Zn 0.318556 3.429680 5.884961
Zn -3.416158 5.180237 8.319278
O 0.318556 3.429680 8.720941
O -3.416158 5.180237 6.286624
Zn 0.318556 3.429680 10.753595
Zn -3.416158 5.180237 13.187912
O 0.318556 3.429680 13.589575
O -3.416158 5.180237 11.155258
Zn -1.766413 6.299652 1.016327
Zn -5.501126 8.050209 3.450644
O -1.766413 6.299652 3.852307
O -5.501126 8.050209 1.417990
Zn -1.766413 6.299652 5.884961
Zn -5.501126 8.050209 8.319278
O -1.766413 6.299652 8.720941
O -5.501126 8.050209 6.286624
Zn -1.766413 6.299652 10.753595
Zn -5.501126 8.050209 13.187912
O -1.766413 6.299652 13.589575
O -5.501126 8.050209 11.155258
Zn 5.560828 0.559708 1.016327
Zn 1.826114 2.310264 3.450644
O 5.560828 0.559708 3.852307
O 1.826114 2.310264 1.417990
Zn 5.560828 0.559708 5.884961
Zn 1.826114 2.310264 8.319278
O 5.560828 0.559708 8.720941
O 1.826114 2.310264 6.286624
Zn 5.560828 0.559708 10.753595
Zn 1.826114 2.310264 13.187912
O 5.560828 0.559708 13.589575
O 1.826114 2.310264 11.155258
Zn 3.475859 3.429680 1.016327
Zn -0.258854 5.180237 3.450644
O 3.475859 3.429680 3.852307
O -0.258854 5.180237 1.417990
Zn 3.475859 3.429680 5.884961
Zn -0.258854 5.180237 8.319278
O 3.475859 3.429680 8.720941
O -0.258854 5.180237 6.286624
Zn 3.475859 3.429680 10.753595
Zn -0.258854 5.180237 13.187912
O 3.475859 3.429680 13.589575
O -0.258854 5.180237 11.155258
Zn 1.390891 6.299652 1.016327
Zn -2.343823 8.050209 3.450644
O 1.390891 6.299652 3.852307
O -2.343823 8.050209 1.417990
Zn 1.390891 6.299652 5.884961
Zn -2.343823 8.050209 8.319278
O 1.390891 6.299652 8.720941
O -2.343823 8.050209 6.286624
Zn 1.390891 6.299652 10.753595
Zn -2.343823 8.050209 13.187912
O 1.390891 6.299652 13.589575
O -2.343823 8.050209 11.155258
Zn 8.718131 0.559708 1.016327
Zn 4.983418 2.310264 3.450644
O 8.718131 0.559708 3.852307
O 4.983418 2.310264 1.417990
Zn 8.718131 0.559708 5.884961
Zn 4.983418 2.310264 8.319278
O 8.718131 0.559708 8.720941
O 4.983418 2.310264 6.286624
Zn 8.718131 0.559708 10.753595
Zn 4.983418 2.310264 13.187912
O 8.718131 0.559708 13.589575
O 4.983418 2.310264 11.155258
Zn 6.633163 3.429680 1.016327
Zn 2.898449 5.180237 3.450644
O 6.633163 3.429680 3.852307
O 2.898449 5.180237 1.417990
Zn 6.633163 3.429680 5.884961
Zn 2.898449 5.180237 8.319278
O 6.633163 3.429680 8.720941
O 2.898449 5.180237 6.286624
Zn 6.633163 3.429680 10.753595
Zn 2.898449 5.180237 13.187912
O 6.633163 3.429680 13.589575
O 2.898449 5.180237 11.155258
Zn 4.548194 6.299652 1.016327
Zn 0.813481 8.050209 3.450644
O 4.548194 6.299652 3.852307
O 0.813481 8.050209 1.417990
Zn 4.548194 6.299652 5.884961
Zn 0.813481 8.050209 8.319278
O 4.548194 6.299652 8.720941
O 0.813481 8.050209 6.286624
Zn 4.548194 6.299652 10.753595
Zn 0.813481 8.050209 13.187912
O 4.548194 6.299652 13.589575
O 0.813481 8.050209 11.155258
