108
A
Zn 2.432628 0.490149 5.422128
Zn -0.937858 2.337135 7.985782
O 2.432628 0.490149 7.396142
O -0.937858 2.337135 9.959796
Zn 2.432628 0.490149 10.549436
Zn -0.937858 2.337135 13.113090
O 2.432628 0.490149 12.523450
O -0.937858 2.337135 15.087104
Zn 2.432628 0.490149 15.676744
Zn -0.937858 2.337135 18.240398
O 2.432628 0.490149 17.650758
O -0.937858 2.337135 20.214412
Zn 0.699591 3.317434 10.549436
Zn -2.670895 5.164419 13.113090
O 0.699591 3.317434 12.523450
O -2.670895 5.164419 15.087104
Zn 0.699591 3.317434 15.676744
Zn -2.670895 5.164419 18.240398
O 0.699591 3.317434 17.650758
O -2.670895 5.164419 20.214412
Zn 0.699591 3.317434 20.804052
Zn -2.670895 5.164419 23.367706
O 0.699591 3.317434 22.778066
O -2.670895 5.164419 25.341720
Zn -1.033445 6.144718 15.676744
Zn -4.403932 7.991704 18.240398
O -1.033445 6.144718 17.650758
O -4.403932 7.991704 20.214412
Zn -1.033445 6.144718 20.804052
Zn -4.403932 7.991704 23.367706
O -1.033445 6.144718 22.778066
O -4.403932 7.991704 25.341720
Zn -1.033445 6.144718 25.931360
Zn -4.403932 7.991704 28.495014
O -1.033445 6.144718 27.905374
O -4.403932 7.991704 30.469028
Zn 5.660435 0.490149 10.549436
Zn 2.289949 2.337135 13.113090
O 5.660435 0.490149 12.523450
O 2.289949 2.337135 15.087104
Zn 5.660435 0.490149 15.676744
Zn 2.289949 2.337135 18.240398
O 5.660435 0.490149 17.650758
O 2.289949 2.337135 20.214412
Zn 5.660435 0.490149 20.804052
Zn 2.289949 2.337135 23.367706
O 5.660435 0.490149 22.778066
O 2.289949 2.337135 25.341720
Zn 3.927398 3.317434 15.676744
Zn 0.556912 5.164419 18.240398
O 3.927398 3.317434 17.650758
O 0.556912 5.164419 20.214412
Zn 3.927398 3.317434 20.804052
Zn 0.556912 5.164419 23.367706
O 3.927398 3.317434 22.778066
O 0.556912 5.164419 25.341720
Zn 3.927398 3.317434 25.931360
Zn 0.556912 5.164419 28.495014
O 3.927398 3.317434 27.905374
O 0.556912 5.164419 30.469028
Zn 2.194361 6.144718 20.804052
Zn -1.176125 7.991704 23.367706
O 2.194361 6.144718 22.778066
O -1.176125 7.991704 25.341720
Zn 2.194361 6.144718 25.931360
Zn -1.176125 7.991704 28.495014
O 2.194361 6.144718 27.905374
O -1.176125 7.991704 30.469028
Zn 2.194361 6.144718 31.058668
Zn -1.176125 7.991704 33.622322
O 2.194361 6.144718 33.032682
O -1.176125 7.991704 35.596336
Zn 8.888242 0.490149 15.676744
Zn 5.517755 2.337135 18.240398
O 8.888242 0.490149 17.650758
O 5.517755 2.337135 20.214412
Zn 8.888242 0.490149 20.804052
Zn 5.517755 2.337135 23.367706
O 8.888242 0.490149 22.778066
O 5.517755 2.337135 25.341720
Zn 8.888242 0.490149 25.931360
Zn 5.517755 2.337135 28.495014
O 8.888242 0.490149 27.905374
O 5.517755 2.337135 30.469028
Zn 7.155205 3.317434 20.804052
Zn 3.784719 5.164419 23.367706
O 7.155205 3.317434 22.778066
O 3.784719 5.164419 25.341720
Zn 7.155205 3.317434 25.931360
Zn 3.784719 5.164419 28.495014
O 7.155205 3.317434 27.905374
O 3.784719 5.164419 30.469028
Zn 7.155205 3.317434 31.058668
Zn 3.784719 5.164419 33.622322
O 7.155205 3.317434 33.032682
O 3.784719 5.164419 35.596336
Zn 5.422168 6.144718 25.931360
Zn 2.051682 7.991704 28.495014
O 5.422168 6.144718 27.905374
O 2.051682 7.991704 30.469028
Zn 5.422168 6.144718 31.058668
Zn 2.051682 7.991704 33.622322
O 5.422168 6.144718 33.032682
O 2.051682 7.991704 35.596336
Zn 5.422168 6.144718 36.185976
Zn 2.051682 7.991704 38.749630
O 5.422168 6.144718 38.159990
O 2.051682 7.991704 40.723644
