108
A
Zn 2.384783 0.589693 1.026201
Zn -1.491171 2.298340 3.405799
O 2.384783 0.589693 3.732994
O -1.491171 2.298340 1.353396
Zn 2.384783 0.589693 5.785396
Zn -1.491171 2.298340 8.164994
O 2.384783 0.589693 8.492189
O -1.491171 2.298340 6.112591
Zn 2.384783 0.589693 10.544591
Zn -1.491171 2.298340 12.924189
O 2.384783 0.589693 13.251384
O -1.491171 2.298340 10.871786
Zn 0.150921 3.477725 1.026201
Zn -3.725034 5.186372 3.405799
O 0.150921 3.477725 3.732994
O -3.725034 5.186372 1.353396
Zn 0.150921 3.477725 5.785396
Zn -3.725034 5.186372 8.164994
O 0.150921 3.477725 8.492189
O -3.725034 5.186372 6.112591
Zn 0.150921 3.477725 10.544591
Zn -3.725034 5.186372 12.924189
O 0.150921 3.477725 13.251384
O -3.725034 5.186372 10.871786
Zn -2.082942 6.365758 1.026201
Zn -5.958896 8.074404 3.405799
O -2.082942 6.365758 3.732994
O -5.958896 8.074404 1.353396
Zn -2.082942 6.365758 5.785396
Zn -5.958896 8.074404 8.164994
O -2.082942 6.365758 8.492189
O -5.958896 8.074404 6.112591
Zn -2.082942 6.365758 10.544591
Zn -5.958896 8.074404 12.924189
O -2.082942 6.365758 13.251384
O -5.958896 8.074404 10.871786
Zn 5.512259 0.589693 1.026201
Zn 1.636304 2.298340 3.405799
O 5.512259 0.589693 3.732994
O 1.636304 2.298340 1.353396
Zn 5.512259 0.589693 5.785396
Zn 1.636304 2.298340 8.164994
O 5.512259 0.589693 8.492189
O 1.636304 2.298340 6.112591
Zn 5.512259 0.589693 10.544591
Zn 1.636304 2.298340 12.924189
O 5.512259 0.589693 13.251384
O 1.636304 2.298340 10.871786
Zn 3.278396 3.477725 1.026201
Zn -0.597558 5.186372 3.405799
O 3.278396 3.477725 3.732994
O -0.597558 5.186372 1.353396
Zn 3.278396 3.477725 5.785396
Zn -0.597558 5.186372 8.164994
O 3.278396 3.477725 8.492189
O -0.597558 5.186372 6.112591
Zn 3.278396 3.477725 10.544591
Zn -0.597558 5.186372 12.924189
O 3.278396 3.477725 13.251384
O -0.597558 5.186372 10.871786
Zn 1.044533 6.365758 1.026201
Zn -2.831421 8.074404 3.405799
O 1.044533 6.365758 3.732994
O -2.831421 8.074404 1.353396
Zn 1.044533 6.365758 5.785396
Zn -2.831421 8.074404 8.164994
O 1.044533 6.365758 8.492189
O -2.831421 8.074404 6.112591
Zn 1.044533 6.365758 10.544591
Zn -2.831421 8.074404 12.924189
O 1.044533 6.365758 13.251384
O -2.831421 8.074404 10.871786
Zn 8.639734 0.589693 1.026201
Zn 4.763779 2.298340 3.405799
O 8.639734 0.589693 3.732994
O 4.763779 2.298340 1.353396
Zn 8.639734 0.589693 5.785396
Zn 4.763779 2.298340 8.164994
O 8.639734 0.589693 8.492189
O 4.763779 2.298340 6.112591
Zn 8.639734 0.589693 10.544591
Zn 4.763779 2.298340 12.924189
O 8.639734 0.589693 13.251384
O 4.763779 2.298340 10.871786
Zn 6.405871 3.477725 1.026201
Zn 2.529917 5.186372 3.405799
O 6.405871 3.477725 3.732994
O 2.529917 5.186372 1.353396
Zn 6.405871 3.477725 5.785396
Zn 2.529917 5.186372 8.164994
O 6.405871 3.477725 8.492189
O 2.529917 5.186372 6.112591
Zn 6.405871 3.477725 10.544591
Zn 2.529917 5.186372 12.924189
O 6.405871 3.477725 13.251384
O 2.529917 5.186372 10.871786
Zn 4.172008 6.365758 1.026201
Zn 0.296054 8.074404 3.405799
O 4.172008 6.365758 3.732994
O 0.296054 8.074404 1.353396
Zn 4.172008 6.365758 5.785396
Zn 0.296054 8.074404 8.164994
O 4.172008 6.365758 8.492189
O 0.296054 8.074404 6.112591
Zn 4.172008 6.365758 10.544591
Zn 0.296054 8.074404 12.924189
O 4.172008 6.365758 13.251384
O 0.296054 8.074404 10.871786
