108
A
Zn 2.421849 0.522023 5.258316
Zn -1.122049 2.324963 7.762276
O 2.421849 0.522023 7.261484
O -1.122049 2.324963 9.765444
Zn 2.421849 0.522023 10.266236
Zn -1.122049 2.324963 12.770196
O 2.421849 0.522023 12.269404
O -1.122049 2.324963 14.773364
Zn 2.421849 0.522023 15.274156
Zn -1.122049 2.324963 17.778116
O 2.421849 0.522023 17.277324
O -1.122049 2.324963 19.781284
Zn 0.526382 3.369010 10.266236
Zn -3.017516 5.171949 12.770196
O 0.526382 3.369010 12.269404
O -3.017516 5.171949 14.773364
Zn 0.526382 3.369010 15.274156
Zn -3.017516 5.171949 17.778116
O 0.526382 3.369010 17.277324
O -3.017516 5.171949 19.781284
Zn 0.526382 3.369010 20.282076
Zn -3.017516 5.171949 22.786036
O 0.526382 3.369010 22.285244
O -3.017516 5.171949 24.789204
Zn -1.369085 6.215996 15.274156
Zn -4.912982 8.018936 17.778116
O -1.369085 6.215996 17.277324
O -4.912982 8.018936 19.781284
Zn -1.369085 6.215996 20.282076
Zn -4.912982 8.018936 22.786036
O -1.369085 6.215996 22.285244
O -4.912982 8.018936 24.789204
Zn -1.369085 6.215996 25.289996
Zn -4.912982 8.018936 27.793956
O -1.369085 6.215996 27.293164
O -4.912982 8.018936 29.797124
Zn 5.617116 0.522023 10.266236
Zn 2.073218 2.324963 12.770196
O 5.617116 0.522023 12.269404
O 2.073218 2.324963 14.773364
Zn 5.617116 0.522023 15.274156
Zn 2.073218 2.324963 17.778116
O 5.617116 0.522023 17.277324
O 2.073218 2.324963 19.781284
Zn 5.617116 0.522023 20.282076
Zn 2.073218 2.324963 22.786036
O 5.617116 0.522023 22.285244
O 2.073218 2.324963 24.789204
Zn 3.721649 3.369010 15.274156
Zn 0.177751 5.171949 17.778116
O 3.721649 3.369010 17.277324
O 0.177751 5.171949 19.781284
Zn 3.721649 3.369010 20.282076
Zn 0.177751 5.171949 22.786036
O 3.721649 3.369010 22.285244
O 0.177751 5.171949 24.789204
Zn 3.721649 3.369010 25.289996
Zn 0.177751 5.171949 27.793956
O 3.721649 3.369010 27.293164
O 0.177751 5.171949 29.797124
Zn 1.826182 6.215996 20.282076
Zn -1.717716 8.018936 22.786036
O 1.826182 6.215996 22.285244
O -1.717716 8.018936 24.789204
Zn 1.826182 6.215996 25.289996
Zn -1.717716 8.018936 27.793956
O 1.826182 6.215996 27.293164
O -1.717716 8.018936 29.797124
Zn 1.826182 6.215996 30.297916
Zn -1.717716 8.018936 32.801876
O 1.826182 6.215996 32.301084
O -1.717716 8.018936 34.805044
Zn 8.812382 0.522023 15.274156
Zn 5.268485 2.324963 17.778116
O 8.812382 0.522023 17.277324
O 5.268485 2.324963 19.781284
Zn 8.812382 0.522023 20.282076
Zn 5.268485 2.324963 22.786036
O 8.812382 0.522023 22.285244
O 5.268485 2.324963 24.789204
Zn 8.812382 0.522023 25.289996
Zn 5.268485 2.324963 27.793956
O 8.812382 0.522023 27.293164
O 5.268485 2.324963 29.797124
Zn 6.916916 3.369010 20.282076
Zn 3.373018 5.171949 22.786036
O 6.916916 3.369010 22.285244
O 3.373018 5.171949 24.789204
Zn 6.916916 3.369010 25.289996
Zn 3.373018 5.171949 27.793956
O 6.916916 3.369010 27.293164
O 3.373018 5.171949 29.797124
Zn 6.916916 3.369010 30.297916
Zn 3.373018 5.171949 32.801876
O 6.916916 3.369010 32.301084
O 3.373018 5.171949 34.805044
Zn 5.021449 6.215996 25.289996
Zn 1.477551 8.018936 27.793956
O 5.021449 6.215996 27.293164
O 1.477551 8.018936 29.797124
Zn 5.021449 6.215996 30.297916
Zn 1.477551 8.018936 32.801876
O 5.021449 6.215996 32.301084
O 1.477551 8.018936 34.805044
Zn 5.021449 6.215996 35.305836
Zn 1.477551 8.018936 37.809796
O 5.021449 6.215996 37.309004
O 1.477551 8.018936 39.812964
