108
A
Zn 2.348303 0.636685 4.699076
Zn -1.730898 2.279259 6.994107
O 2.348303 0.636685 6.776079
O -1.730898 2.279259 9.071110
Zn 2.348303 0.636685 9.289138
Zn -1.730898 2.279259 11.584169
O 2.348303 0.636685 11.366141
O -1.730898 2.279259 13.661172
Zn 2.348303 0.636685 13.879200
Zn -1.730898 2.279259 16.174231
O 2.348303 0.636685 15.956203
O -1.730898 2.279259 18.251234
Zn -0.115669 3.552628 9.289138
Zn -4.194870 5.195203 11.584169
O -0.115669 3.552628 11.366141
O -4.194870 5.195203 13.661172
Zn -0.115669 3.552628 13.879200
Zn -4.194870 5.195203 16.174231
O -0.115669 3.552628 15.956203
O -4.194870 5.195203 18.251234
Zn -0.115669 3.552628 18.469262
Zn -4.194870 5.195203 20.764293
O -0.115669 3.552628 20.546265
O -4.194870 5.195203 22.841296
Zn -2.579641 6.468572 13.879200
Zn -6.658842 8.111147 16.174231
O -2.579641 6.468572 15.956203
O -6.658842 8.111147 18.251234
Zn -2.579641 6.468572 18.469262
Zn -6.658842 8.111147 20.764293
O -2.579641 6.468572 20.546265
O -6.658842 8.111147 22.841296
Zn -2.579641 6.468572 23.059324
Zn -6.658842 8.111147 25.354355
O -2.579641 6.468572 25.136327
O -6.658842 8.111147 27.431358
Zn 5.429680 0.636685 9.289138
Zn 1.350479 2.279259 11.584169
O 5.429680 0.636685 11.366141
O 1.350479 2.279259 13.661172
Zn 5.429680 0.636685 13.879200
Zn 1.350479 2.279259 16.174231
O 5.429680 0.636685 15.956203
O 1.350479 2.279259 18.251234
Zn 5.429680 0.636685 18.469262
Zn 1.350479 2.279259 20.764293
O 5.429680 0.636685 20.546265
O 1.350479 2.279259 22.841296
Zn 2.965708 3.552628 13.879200
Zn -1.113493 5.195203 16.174231
O 2.965708 3.552628 15.956203
O -1.113493 5.195203 18.251234
Zn 2.965708 3.552628 18.469262
Zn -1.113493 5.195203 20.764293
O 2.965708 3.552628 20.546265
O -1.113493 5.195203 22.841296
Zn 2.965708 3.552628 23.059324
Zn -1.113493 5.195203 25.354355
O 2.965708 3.552628 25.136327
O -1.113493 5.195203 27.431358
Zn 0.501736 6.468572 18.469262
Zn -3.577465 8.111147 20.764293
O 0.501736 6.468572 20.546265
O -3.577465 8.111147 22.841296
Zn 0.501736 6.468572 23.059324
Zn -3.577465 8.111147 25.354355
O 0.501736 6.468572 25.136327
O -3.577465 8.111147 27.431358
Zn 0.501736 6.468572 27.649386
Zn -3.577465 8.111147 29.944417
O 0.501736 6.468572 29.726389
O -3.577465 8.111147 32.021420
Zn 8.511057 0.636685 13.879200
Zn 4.431856 2.279259 16.174231
O 8.511057 0.636685 15.956203
O 4.431856 2.279259 18.251234
Zn 8.511057 0.636685 18.469262
Zn 4.431856 2.279259 20.764293
O 8.511057 0.636685 20.546265
O 4.431856 2.279259 22.841296
Zn 8.511057 0.636685 23.059324
Zn 4.431856 2.279259 25.354355
O 8.511057 0.636685 25.136327
O 4.431856 2.279259 27.431358
Zn 6.047085 3.552628 18.469262
Zn 1.967884 5.195203 20.764293
O 6.047085 3.552628 20.546265
O 1.967884 5.195203 22.841296
Zn 6.047085 3.552628 23.059324
Zn 1.967884 5.195203 25.354355
O 6.047085 3.552628 25.136327
O 1.967884 5.195203 27.431358
Zn 6.047085 3.552628 27.649386
Zn 1.967884 5.195203 29.944417
O 6.047085 3.552628 29.726389
O 1.967884 5.195203 32.021420
Zn 3.583113 6.468572 23.059324
Zn -0.496088 8.111147 25.354355
O 3.583113 6.468572 25.136327
O -0.496088 8.111147 27.431358
Zn 3.583113 6.468572 27.649386
Zn -0.496088 8.111147 29.944417
O 3.583113 6.468572 29.726389
O -0.496088 8.111147 32.021420
Zn 3.583113 6.468572 32.239448
Zn -0.496088 8.111147 34.534479
O 3.583113 6.468572 34.316451
O -0.496088 8.111147 36.611482
