108
A
Zn 2.433982 0.484875 0.984403
Zn -0.906717 2.339125 3.558006
O 2.433982 0.484875 4.162803
O -0.906717 2.339125 1.589200
Zn 2.433982 0.484875 6.131609
Zn -0.906717 2.339125 8.705212
O 2.433982 0.484875 9.310009
O -0.906717 2.339125 6.736406
Zn 2.433982 0.484875 11.278815
Zn -0.906717 2.339125 13.852418
O 2.433982 0.484875 14.457215
O -0.906717 2.339125 11.883612
Zn 0.728017 3.308876 0.984403
Zn -2.612683 5.163126 3.558006
O 0.728017 3.308876 4.162803
O -2.612683 5.163126 1.589200
Zn 0.728017 3.308876 6.131609
Zn -2.612683 5.163126 8.705212
O 0.728017 3.308876 9.310009
O -2.612683 5.163126 6.736406
Zn 0.728017 3.308876 11.278815
Zn -2.612683 5.163126 13.852418
O 0.728017 3.308876 14.457215
O -2.612683 5.163126 11.883612
Zn -0.977948 6.132876 0.984403
Zn -4.318648 7.987127 3.558006
O -0.977948 6.132876 4.162803
O -4.318648 7.987127 1.589200
Zn -0.977948 6.132876 6.131609
Zn -4.318648 7.987127 8.705212
O -0.977948 6.132876 9.310009
O -4.318648 7.987127 6.736406
Zn -0.977948 6.132876 11.278815
Zn -4.318648 7.987127 13.852418
O -0.977948 6.132876 14.457215
O -4.318648 7.987127 11.883612
Zn 5.667213 0.484875 0.984403
Zn 2.326513 2.339125 3.558006
O 5.667213 0.484875 4.162803
O 2.326513 2.339125 1.589200
Zn 5.667213 0.484875 6.131609
Zn 2.326513 2.339125 8.705212
O 5.667213 0.484875 9.310009
O 2.326513 2.339125 6.736406
Zn 5.667213 0.484875 11.278815
Zn 2.326513 2.339125 13.852418
O 5.667213 0.484875 14.457215
O 2.326513 2.339125 11.883612
Zn 3.961247 3.308876 0.984403
Zn 0.620548 5.163126 3.558006
O 3.961247 3.308876 4.162803
O 0.620548 5.163126 1.589200
Zn 3.961247 3.308876 6.131609
Zn 0.620548 5.163126 8.705212
O 3.961247 3.308876 9.310009
O 0.620548 5.163126 6.736406
Zn 3.961247 3.308876 11.278815
Zn 0.620548 5.163126 13.852418
O 3.961247 3.308876 14.457215
O 0.620548 5.163126 11.883612
Zn 2.255282 6.132876 0.984403
Zn -1.085418 7.987127 3.558006
O 2.255282 6.132876 4.162803
O -1.085418 7.987127 1.589200
Zn 2.255282 6.132876 6.131609
Zn -1.085418 7.987127 8.705212
O 2.255282 6.132876 9.310009
O -1.085418 7.987127 6.736406
Zn 2.255282 6.132876 11.278815
Zn -1.085418 7.987127 13.852418
O 2.255282 6.132876 14.457215
O -1.085418 7.987127 11.883612
Zn 8.900443 0.484875 0.984403
Zn 5.559743 2.339125 3.558006
O 8.900443 0.484875 4.162803
O 5.559743 2.339125 1.589200
Zn 8.900443 0.484875 6.131609
Zn 5.559743 2.339125 8.705212
O 8.900443 0.484875 9.310009
O 5.559743 2.339125 6.736406
Zn 8.900443 0.484875 11.278815
Zn 5.559743 2.339125 13.852418
O 8.900443 0.484875 14.457215
O 5.559743 2.339125 11.883612
Zn 7.194478 3.308876 0.984403
Zn 3.853778 5.163126 3.558006
O 7.194478 3.308876 4.162803
O 3.853778 5.163126 1.589200
Zn 7.194478 3.308876 6.131609
Zn 3.853778 5.163126 8.705212
O 7.194478 3.308876 9.310009
O 3.853778 5.163126 6.736406
Zn 7.194478 3.308876 11.278815
Zn 3.853778 5.163126 13.852418
O 7.194478 3.308876 14.457215
O 3.853778 5.163126 11.883612
Zn 5.488512 6.132876 0.984403
Zn 2.147813 7.987127 3.558006
O 5.488512 6.132876 4.162803
O 2.147813 7.987127 1.589200
Zn 5.488512 6.132876 6.131609
Zn 2.147813 7.987127 8.705212
O 5.488512 6.132876 9.310009
O 2.147813 7.987127 6.736406
Zn 5.488512 6.132876 11.278815
Zn 2.147813 7.987127 13.852418
O 5.488512 6.132876 14.457215
O 2.147813 7.987127 11.883612
