108
A
Zn 2.325294 0.661883 4.582093
Zn -1.854116 2.268838 6.832353
O 2.325294 0.661883 6.669210
O -1.854116 2.268838 8.919470
Zn 2.325294 0.661883 9.082614
Zn -1.854116 2.268838 11.332874
O 2.325294 0.661883 11.169731
O -1.854116 2.268838 13.419991
Zn 2.325294 0.661883 13.583135
Zn -1.854116 2.268838 15.833395
O 2.325294 0.661883 15.670252
O -1.854116 2.268838 17.920512
Zn -0.260501 3.592603 9.082614
Zn -4.439911 5.199558 11.332874
O -0.260501 3.592603 11.169731
O -4.439911 5.199558 13.419991
Zn -0.260501 3.592603 13.583135
Zn -4.439911 5.199558 15.833395
O -0.260501 3.592603 15.670252
O -4.439911 5.199558 17.920512
Zn -0.260501 3.592603 18.083656
Zn -4.439911 5.199558 20.333916
O -0.260501 3.592603 20.170773
O -4.439911 5.199558 22.421033
Zn -2.846295 6.523323 13.583135
Zn -7.025705 8.130278 15.833395
O -2.846295 6.523323 15.670252
O -7.025705 8.130278 17.920512
Zn -2.846295 6.523323 18.083656
Zn -7.025705 8.130278 20.333916
O -2.846295 6.523323 20.170773
O -7.025705 8.130278 22.421033
Zn -2.846295 6.523323 22.584177
Zn -7.025705 8.130278 24.834437
O -2.846295 6.523323 24.671294
O -7.025705 8.130278 26.921554
Zn 5.382266 0.661883 9.082614
Zn 1.202856 2.268838 11.332874
O 5.382266 0.661883 11.169731
O 1.202856 2.268838 13.419991
Zn 5.382266 0.661883 13.583135
Zn 1.202856 2.268838 15.833395
O 5.382266 0.661883 15.670252
O 1.202856 2.268838 17.920512
Zn 5.382266 0.661883 18.083656
Zn 1.202856 2.268838 20.333916
O 5.382266 0.661883 20.170773
O 1.202856 2.268838 22.421033
Zn 2.796471 3.592603 13.583135
Zn -1.382939 5.199558 15.833395
O 2.796471 3.592603 15.670252
O -1.382939 5.199558 17.920512
Zn 2.796471 3.592603 18.083656
Zn -1.382939 5.199558 20.333916
O 2.796471 3.592603 20.170773
O -1.382939 5.199558 22.421033
Zn 2.796471 3.592603 22.584177
Zn -1.382939 5.199558 24.834437
O 2.796471 3.592603 24.671294
O -1.382939 5.199558 26.921554
Zn 0.210677 6.523323 18.083656
Zn -3.968733 8.130278 20.333916
O 0.210677 6.523323 20.170773
O -3.968733 8.130278 22.421033
Zn 0.210677 6.523323 22.584177
Zn -3.968733 8.130278 24.834437
O 0.210677 6.523323 24.671294
O -3.968733 8.130278 26.921554
Zn 0.210677 6.523323 27.084698
Zn -3.968733 8.130278 29.334958
O 0.210677 6.523323 29.171815
O -3.968733 8.130278 31.422075
Zn 8.439238 0.661883 13.583135
Zn 4.259828 2.268838 15.833395
O 8.439238 0.661883 15.670252
O 4.259828 2.268838 17.920512
Zn 8.439238 0.661883 18.083656
Zn 4.259828 2.268838 20.333916
O 8.439238 0.661883 20.170773
O 4.259828 2.268838 22.421033
Zn 8.439238 0.661883 22.584177
Zn 4.259828 2.268838 24.834437
O 8.439238 0.661883 24.671294
O 4.259828 2.268838 26.921554
Zn 5.853443 3.592603 18.083656
Zn 1.674033 5.199558 20.333916
O 5.853443 3.592603 20.170773
O 1.674033 5.199558 22.421033
Zn 5.853443 3.592603 22.584177
Zn 1.674033 5.199558 24.834437
O 5.853443 3.592603 24.671294
O 1.674033 5.199558 26.921554
Zn 5.853443 3.592603 27.084698
Zn 1.674033 5.199558 29.334958
O 5.853443 3.592603 29.171815
O 1.674033 5.199558 31.422075
Zn 3.267649 6.523323 22.584177
Zn -0.911761 8.130278 24.834437
O 3.267649 6.523323 24.671294
O -0.911761 8.130278 26.921554
Zn 3.267649 6.523323 27.084698
Zn -0.911761 8.130278 29.334958
O 3.267649 6.523323 29.171815
O -0.911761 8.130278 31.422075
Zn 3.267649 6.523323 31.585219
Zn -0.911761 8.130278 33.835479
O 3.267649 6.523323 33.672336
O -0.911761 8.130278 35.922596
