108
A
Zn 2.362221 0.620009 1.034571
Zn -1.647331 2.286084 3.359449
O 2.362221 0.620009 3.615185
O -1.647331 2.286084 1.290307
Zn 2.362221 0.620009 5.684327
Zn -1.647331 2.286084 8.009205
O 2.362221 0.620009 8.264941
O -1.647331 2.286084 5.940063
Zn 2.362221 0.620009 10.334083
Zn -1.647331 2.286084 12.658961
O 2.362221 0.620009 12.914697
O -1.647331 2.286084 10.589819
Zn -0.020536 3.526102 1.034571
Zn -4.030087 5.192176 3.359449
O -0.020536 3.526102 3.615185
O -4.030087 5.192176 1.290307
Zn -0.020536 3.526102 5.684327
Zn -4.030087 5.192176 8.009205
O -0.020536 3.526102 8.264941
O -4.030087 5.192176 5.940063
Zn -0.020536 3.526102 10.334083
Zn -4.030087 5.192176 12.658961
O -0.020536 3.526102 12.914697
O -4.030087 5.192176 10.589819
Zn -2.403293 6.432194 1.034571
Zn -6.412844 8.098269 3.359449
O -2.403293 6.432194 3.615185
O -6.412844 8.098269 1.290307
Zn -2.403293 6.432194 5.684327
Zn -6.412844 8.098269 8.009205
O -2.403293 6.432194 8.264941
O -6.412844 8.098269 5.940063
Zn -2.403293 6.432194 10.334083
Zn -6.412844 8.098269 12.658961
O -2.403293 6.432194 12.914697
O -6.412844 8.098269 10.589819
Zn 5.459867 0.620009 1.034571
Zn 1.450316 2.286084 3.359449
O 5.459867 0.620009 3.615185
O 1.450316 2.286084 1.290307
Zn 5.459867 0.620009 5.684327
Zn 1.450316 2.286084 8.009205
O 5.459867 0.620009 8.264941
O 1.450316 2.286084 5.940063
Zn 5.459867 0.620009 10.334083
Zn 1.450316 2.286084 12.658961
O 5.459867 0.620009 12.914697
O 1.450316 2.286084 10.589819
Zn 3.077111 3.526102 1.034571
Zn -0.932441 5.192176 3.359449
O 3.077111 3.526102 3.615185
O -0.932441 5.192176 1.290307
Zn 3.077111 3.526102 5.684327
Zn -0.932441 5.192176 8.009205
O 3.077111 3.526102 8.264941
O -0.932441 5.192176 5.940063
Zn 3.077111 3.526102 10.334083
Zn -0.932441 5.192176 12.658961
O 3.077111 3.526102 12.914697
O -0.932441 5.192176 10.589819
Zn 0.694354 6.432194 1.034571
Zn -3.315197 8.098269 3.359449
O 0.694354 6.432194 3.615185
O -3.315197 8.098269 1.290307
Zn 0.694354 6.432194 5.684327
Zn -3.315197 8.098269 8.009205
O 0.694354 6.432194 8.264941
O -3.315197 8.098269 5.940063
Zn 0.694354 6.432194 10.334083
Zn -3.315197 8.098269 12.658961
O 0.694354 6.432194 12.914697
O -3.315197 8.098269 10.589819
Zn 8.557514 0.620009 1.034571
Zn 4.547963 2.286084 3.359449
O 8.557514 0.620009 3.615185
O 4.547963 2.286084 1.290307
Zn 8.557514 0.620009 5.684327
Zn 4.547963 2.286084 8.009205
O 8.557514 0.620009 8.264941
O 4.547963 2.286084 5.940063
Zn 8.557514 0.620009 10.334083
Zn 4.547963 2.286084 12.658961
O 8.557514 0.620009 12.914697
O 4.547963 2.286084 10.589819
Zn 6.174757 3.526102 1.034571
Zn 2.165206 5.192176 3.359449
O 6.174757 3.526102 3.615185
O 2.165206 5.192176 1.290307
Zn 6.174757 3.526102 5.684327
Zn 2.165206 5.192176 8.009205
O 6.174757 3.526102 8.264941
O 2.165206 5.192176 5.940063
Zn 6.174757 3.526102 10.334083
Zn 2.165206 5.192176 12.658961
O 6.174757 3.526102 12.914697
O 2.165206 5.192176 10.589819
Zn 3.792001 6.432194 1.034571
Zn -0.217551 8.098269 3.359449
O 3.792001 6.432194 3.615185
O -0.217551 8.098269 1.290307
Zn 3.792001 6.432194 5.684327
Zn -0.217551 8.098269 8.009205
O 3.792001 6.432194 8.264941
O -0.217551 8.098269 5.940063
Zn 3.792001 6.432194 10.334083
Zn -0.217551 8.098269 12.658961
O 3.792001 6.432194 12.914697
O -0.217551 8.098269 10.589819
