108
A
Zn 2.375001 0.603432 1.030192
Zn -1.562626 2.292810 3.384917
O 2.375001 0.603432 3.679258
O -1.562626 2.292810 1.324533
Zn 2.375001 0.603432 5.739642
Zn -1.562626 2.292810 8.094367
O 2.375001 0.603432 8.388708
O -1.562626 2.292810 6.033983
Zn 2.375001 0.603432 10.449092
Zn -1.562626 2.292810 12.803817
O 2.375001 0.603432 13.098158
O -1.562626 2.292810 10.743433
Zn 0.073459 3.499674 1.030192
Zn -3.864168 5.189051 3.384917
O 0.073459 3.499674 3.679258
O -3.864168 5.189051 1.324533
Zn 0.073459 3.499674 5.739642
Zn -3.864168 5.189051 8.094367
O 0.073459 3.499674 8.388708
O -3.864168 5.189051 6.033983
Zn 0.073459 3.499674 10.449092
Zn -3.864168 5.189051 12.803817
O 0.073459 3.499674 13.098158
O -3.864168 5.189051 10.743433
Zn -2.228082 6.395915 1.030192
Zn -6.165710 8.085293 3.384917
O -2.228082 6.395915 3.679258
O -6.165710 8.085293 1.324533
Zn -2.228082 6.395915 5.739642
Zn -6.165710 8.085293 8.094367
O -2.228082 6.395915 8.388708
O -6.165710 8.085293 6.033983
Zn -2.228082 6.395915 10.449092
Zn -6.165710 8.085293 12.803817
O -2.228082 6.395915 13.098158
O -6.165710 8.085293 10.743433
Zn 5.488918 0.603432 1.030192
Zn 1.551291 2.292810 3.384917
O 5.488918 0.603432 3.679258
O 1.551291 2.292810 1.324533
Zn 5.488918 0.603432 5.739642
Zn 1.551291 2.292810 8.094367
O 5.488918 0.603432 8.388708
O 1.551291 2.292810 6.033983
Zn 5.488918 0.603432 10.449092
Zn 1.551291 2.292810 12.803817
O 5.488918 0.603432 13.098158
O 1.551291 2.292810 10.743433
Zn 3.187376 3.499674 1.030192
Zn -0.750251 5.189051 3.384917
O 3.187376 3.499674 3.679258
O -0.750251 5.189051 1.324533
Zn 3.187376 3.499674 5.739642
Zn -0.750251 5.189051 8.094367
O 3.187376 3.499674 8.388708
O -0.750251 5.189051 6.033983
Zn 3.187376 3.499674 10.449092
Zn -0.750251 5.189051 12.803817
O 3.187376 3.499674 13.098158
O -0.750251 5.189051 10.743433
Zn 0.885834 6.395915 1.030192
Zn -3.051793 8.085293 3.384917
O 0.885834 6.395915 3.679258
O -3.051793 8.085293 1.324533
Zn 0.885834 6.395915 5.739642
Zn -3.051793 8.085293 8.094367
O 0.885834 6.395915 8.388708
O -3.051793 8.085293 6.033983
Zn 0.885834 6.395915 10.449092
Zn -3.051793 8.085293 12.803817
O 0.885834 6.395915 13.098158
O -3.051793 8.085293 10.743433
Zn 8.602835 0.603432 1.030192
Zn 4.665207 2.292810 3.384917
O 8.602835 0.603432 3.679258
O 4.665207 2.292810 1.324533
Zn 8.602835 0.603432 5.739642
Zn 4.665207 2.292810 8.094367
O 8.602835 0.603432 8.388708
O 4.665207 2.292810 6.033983
Zn 8.602835 0.603432 10.449092
Zn 4.665207 2.292810 12.803817
O 8.602835 0.603432 13.098158
O 4.665207 2.292810 10.743433
Zn 6.301293 3.499674 1.030192
Zn 2.363666 5.189051 3.384917
O 6.301293 3.499674 3.679258
O 2.363666 5.189051 1.324533
Zn 6.301293 3.499674 5.739642
Zn 2.363666 5.189051 8.094367
O 6.301293 3.499674 8.388708
O 2.363666 5.189051 6.033983
Zn 6.301293 3.499674 10.449092
Zn 2.363666 5.189051 12.803817
O 6.301293 3.499674 13.098158
O 2.363666 5.189051 10.743433
Zn 3.999751 6.395915 1.030192
Zn 0.062124 8.085293 3.384917
O 3.999751 6.395915 3.679258
O 0.062124 8.085293 1.324533
Zn 3.999751 6.395915 5.739642
Zn 0.062124 8.085293 8.094367
O 3.999751 6.395915 8.388708
O 0.062124 8.085293 6.033983
Zn 3.999751 6.395915 10.449092
Zn 0.062124 8.085293 12.803817
O 3.999751 6.395915 13.098158
O 0.062124 8.085293 10.743433
