108
A
Zn 2.251429 0.730161 4.275063
Zn -2.170191 2.239964 6.405935
O 2.251429 0.730161 6.379300
O -2.170191 2.239964 8.510172
Zn 2.251429 0.730161 8.536808
Zn -2.170191 2.239964 10.667680
O 2.251429 0.730161 10.641045
O -2.170191 2.239964 12.771917
Zn 2.251429 0.730161 12.798553
Zn -2.170191 2.239964 14.929425
O 2.251429 0.730161 14.902790
O -2.170191 2.239964 17.033662
Zn -0.659226 3.700285 8.536808
Zn -5.080846 5.210089 10.667680
O -0.659226 3.700285 10.641045
O -5.080846 5.210089 12.771917
Zn -0.659226 3.700285 12.798553
Zn -5.080846 5.210089 14.929425
O -0.659226 3.700285 14.902790
O -5.080846 5.210089 17.033662
Zn -0.659226 3.700285 17.060298
Zn -5.080846 5.210089 19.191170
O -0.659226 3.700285 19.164535
O -5.080846 5.210089 21.295407
Zn -3.569880 6.670410 12.798553
Zn -7.991500 8.180213 14.929425
O -3.569880 6.670410 14.902790
O -7.991500 8.180213 17.033662
Zn -3.569880 6.670410 17.060298
Zn -7.991500 8.180213 19.191170
O -3.569880 6.670410 19.164535
O -7.991500 8.180213 21.295407
Zn -3.569880 6.670410 21.322043
Zn -7.991500 8.180213 23.452915
O -3.569880 6.670410 23.426280
O -7.991500 8.180213 25.557152
Zn 5.243321 0.730161 8.536808
Zn 0.821701 2.239964 10.667680
O 5.243321 0.730161 10.641045
O 0.821701 2.239964 12.771917
Zn 5.243321 0.730161 12.798553
Zn 0.821701 2.239964 14.929425
O 5.243321 0.730161 14.902790
O 0.821701 2.239964 17.033662
Zn 5.243321 0.730161 17.060298
Zn 0.821701 2.239964 19.191170
O 5.243321 0.730161 19.164535
O 0.821701 2.239964 21.295407
Zn 2.332666 3.700285 12.798553
Zn -2.088954 5.210089 14.929425
O 2.332666 3.700285 14.902790
O -2.088954 5.210089 17.033662
Zn 2.332666 3.700285 17.060298
Zn -2.088954 5.210089 19.191170
O 2.332666 3.700285 19.164535
O -2.088954 5.210089 21.295407
Zn 2.332666 3.700285 21.322043
Zn -2.088954 5.210089 23.452915
O 2.332666 3.700285 23.426280
O -2.088954 5.210089 25.557152
Zn -0.577988 6.670410 17.060298
Zn -4.999608 8.180213 19.191170
O -0.577988 6.670410 19.164535
O -4.999608 8.180213 21.295407
Zn -0.577988 6.670410 21.322043
Zn -4.999608 8.180213 23.452915
O -0.577988 6.670410 23.426280
O -4.999608 8.180213 25.557152
Zn -0.577988 6.670410 25.583788
Zn -4.999608 8.180213 27.714660
O -0.577988 6.670410 27.688025
O -4.999608 8.180213 29.818897
Zn 8.235213 0.730161 12.798553
Zn 3.813593 2.239964 14.929425
O 8.235213 0.730161 14.902790
O 3.813593 2.239964 17.033662
Zn 8.235213 0.730161 17.060298
Zn 3.813593 2.239964 19.191170
O 8.235213 0.730161 19.164535
O 3.813593 2.239964 21.295407
Zn 8.235213 0.730161 21.322043
Zn 3.813593 2.239964 23.452915
O 8.235213 0.730161 23.426280
O 3.813593 2.239964 25.557152
Zn 5.324558 3.700285 17.060298
Zn 0.902938 5.210089 19.191170
O 5.324558 3.700285 19.164535
O 0.902938 5.210089 21.295407
Zn 5.324558 3.700285 21.322043
Zn 0.902938 5.210089 23.452915
O 5.324558 3.700285 23.426280
O 0.902938 5.210089 25.557152
Zn 5.324558 3.700285 25.583788
Zn 0.902938 5.210089 27.714660
O 5.324558 3.700285 27.688025
O 0.902938 5.210089 29.818897
Zn 2.413904 6.670410 21.322043
Zn -2.007716 8.180213 23.452915
O 2.413904 6.670410 23.426280
O -2.007716 8.180213 25.557152
Zn 2.413904 6.670410 25.583788
Zn -2.007716 8.180213 27.714660
O 2.413904 6.670410 27.688025
O -2.007716 8.180213 29.818897
Zn 2.413904 6.670410 29.845533
Zn -2.007716 8.180213 31.976405
O 2.413904 6.670410 31.949770
O -2.007716 8.180213 34.080642
