108
A
Zn 2.433321 0.487511 5.435860
Zn -0.922304 2.338132 8.004489
O 2.433321 0.487511 7.407282
O -0.922304 2.338132 9.975911
Zn 2.433321 0.487511 10.573117
Zn -0.922304 2.338132 13.141746
O 2.433321 0.487511 12.544539
O -0.922304 2.338132 15.113168
Zn 2.433321 0.487511 15.710374
Zn -0.922304 2.338132 18.279003
O 2.433321 0.487511 17.681796
O -0.922304 2.338132 20.250425
Zn 0.713820 3.313153 10.573117
Zn -2.641804 5.163774 13.141746
O 0.713820 3.313153 12.544539
O -2.641804 5.163774 15.113168
Zn 0.713820 3.313153 15.710374
Zn -2.641804 5.163774 18.279003
O 0.713820 3.313153 17.681796
O -2.641804 5.163774 20.250425
Zn 0.713820 3.313153 20.847631
Zn -2.641804 5.163774 23.416260
O 0.713820 3.313153 22.819053
O -2.641804 5.163774 25.387682
Zn -1.005681 6.138796 15.710374
Zn -4.361305 7.989416 18.279003
O -1.005681 6.138796 17.681796
O -4.361305 7.989416 20.250425
Zn -1.005681 6.138796 20.847631
Zn -4.361305 7.989416 23.416260
O -1.005681 6.138796 22.819053
O -4.361305 7.989416 25.387682
Zn -1.005681 6.138796 25.984888
Zn -4.361305 7.989416 28.553517
O -1.005681 6.138796 27.956310
O -4.361305 7.989416 30.524939
Zn 5.663839 0.487511 10.573117
Zn 2.308215 2.338132 13.141746
O 5.663839 0.487511 12.544539
O 2.308215 2.338132 15.113168
Zn 5.663839 0.487511 15.710374
Zn 2.308215 2.338132 18.279003
O 5.663839 0.487511 17.681796
O 2.308215 2.338132 20.250425
Zn 5.663839 0.487511 20.847631
Zn 2.308215 2.338132 23.416260
O 5.663839 0.487511 22.819053
O 2.308215 2.338132 25.387682
Zn 3.944339 3.313153 15.710374
Zn 0.588714 5.163774 18.279003
O 3.944339 3.313153 17.681796
O 0.588714 5.163774 20.250425
Zn 3.944339 3.313153 20.847631
Zn 0.588714 5.163774 23.416260
O 3.944339 3.313153 22.819053
O 0.588714 5.163774 25.387682
Zn 3.944339 3.313153 25.984888
Zn 0.588714 5.163774 28.553517
O 3.944339 3.313153 27.956310
O 0.588714 5.163774 30.524939
Zn 2.224838 6.138796 20.847631
Zn -1.130787 7.989416 23.416260
O 2.224838 6.138796 22.819053
O -1.130787 7.989416 25.387682
Zn 2.224838 6.138796 25.984888
Zn -1.130787 7.989416 28.553517
O 2.224838 6.138796 27.956310
O -1.130787 7.989416 30.524939
Zn 2.224838 6.138796 31.122145
Zn -1.130787 7.989416 33.690774
O 2.224838 6.138796 33.093567
O -1.130787 7.989416 35.662196
Zn 8.894358 0.487511 15.710374
Zn 5.538733 2.338132 18.279003
O 8.894358 0.487511 17.681796
O 5.538733 2.338132 20.250425
Zn 8.894358 0.487511 20.847631
Zn 5.538733 2.338132 23.416260
O 8.894358 0.487511 22.819053
O 5.538733 2.338132 25.387682
Zn 8.894358 0.487511 25.984888
Zn 5.538733 2.338132 28.553517
O 8.894358 0.487511 27.956310
O 5.538733 2.338132 30.524939
Zn 7.174857 3.313153 20.847631
Zn 3.819232 5.163774 23.416260
O 7.174857 3.313153 22.819053
O 3.819232 5.163774 25.387682
Zn 7.174857 3.313153 25.984888
Zn 3.819232 5.163774 28.553517
O 7.174857 3.313153 27.956310
O 3.819232 5.163774 30.524939
Zn 7.174857 3.313153 31.122145
Zn 3.819232 5.163774 33.690774
O 7.174857 3.313153 33.093567
O 3.819232 5.163774 35.662196
Zn 5.455356 6.138796 25.984888
Zn 2.099731 7.989416 28.553517
O 5.455356 6.138796 27.956310
O 2.099731 7.989416 30.524939
Zn 5.455356 6.138796 31.122145
Zn 2.099731 7.989416 33.690774
O 5.455356 6.138796 33.093567
O 2.099731 7.989416 35.662196
Zn 5.455356 6.138796 36.259402
Zn 2.099731 7.989416 38.828031
O 5.455356 6.138796 38.230824
O 2.099731 7.989416 40.799453
