108
A
Zn 2.382890 0.592435 4.909533
Zn -1.505525 2.297239 7.284156
O 2.382890 0.592435 6.963582
O -1.505525 2.297239 9.338205
Zn 2.382890 0.592435 9.658779
Zn -1.505525 2.297239 12.033402
O 2.382890 0.592435 11.712828
O -1.505525 2.297239 14.087451
Zn 2.382890 0.592435 14.408025
Zn -1.505525 2.297239 16.782648
O 2.382890 0.592435 16.462074
O -1.505525 2.297239 18.836697
Zn 0.135492 3.482110 9.658779
Zn -3.752924 5.186913 12.033402
O 0.135492 3.482110 11.712828
O -3.752924 5.186913 14.087451
Zn 0.135492 3.482110 14.408025
Zn -3.752924 5.186913 16.782648
O 0.135492 3.482110 16.462074
O -3.752924 5.186913 18.836697
Zn 0.135492 3.482110 19.157271
Zn -3.752924 5.186913 21.531894
O 0.135492 3.482110 21.211320
O -3.752924 5.186913 23.585943
Zn -2.111907 6.371784 14.408025
Zn -6.000322 8.076588 16.782648
O -2.111907 6.371784 16.462074
O -6.000322 8.076588 18.836697
Zn -2.111907 6.371784 19.157271
Zn -6.000322 8.076588 21.531894
O -2.111907 6.371784 21.211320
O -6.000322 8.076588 23.585943
Zn -2.111907 6.371784 23.906517
Zn -6.000322 8.076588 26.281140
O -2.111907 6.371784 25.960566
O -6.000322 8.076588 28.335189
Zn 5.507654 0.592435 9.658779
Zn 1.619238 2.297239 12.033402
O 5.507654 0.592435 11.712828
O 1.619238 2.297239 14.087451
Zn 5.507654 0.592435 14.408025
Zn 1.619238 2.297239 16.782648
O 5.507654 0.592435 16.462074
O 1.619238 2.297239 18.836697
Zn 5.507654 0.592435 19.157271
Zn 1.619238 2.297239 21.531894
O 5.507654 0.592435 21.211320
O 1.619238 2.297239 23.585943
Zn 3.260255 3.482110 14.408025
Zn -0.628160 5.186913 16.782648
O 3.260255 3.482110 16.462074
O -0.628160 5.186913 18.836697
Zn 3.260255 3.482110 19.157271
Zn -0.628160 5.186913 21.531894
O 3.260255 3.482110 21.211320
O -0.628160 5.186913 23.585943
Zn 3.260255 3.482110 23.906517
Zn -0.628160 5.186913 26.281140
O 3.260255 3.482110 25.960566
O -0.628160 5.186913 28.335189
Zn 1.012857 6.371784 19.157271
Zn -2.875559 8.076588 21.531894
O 1.012857 6.371784 21.211320
O -2.875559 8.076588 23.585943
Zn 1.012857 6.371784 23.906517
Zn -2.875559 8.076588 26.281140
O 1.012857 6.371784 25.960566
O -2.875559 8.076588 28.335189
Zn 1.012857 6.371784 28.655763
Zn -2.875559 8.076588 31.030386
O 1.012857 6.371784 30.709812
O -2.875559 8.076588 33.084435
Zn 8.632417 0.592435 14.408025
Zn 4.744002 2.297239 16.782648
O 8.632417 0.592435 16.462074
O 4.744002 2.297239 18.836697
Zn 8.632417 0.592435 19.157271
Zn 4.744002 2.297239 21.531894
O 8.632417 0.592435 21.211320
O 4.744002 2.297239 23.585943
Zn 8.632417 0.592435 23.906517
Zn 4.744002 2.297239 26.281140
O 8.632417 0.592435 25.960566
O 4.744002 2.297239 28.335189
Zn 6.385019 3.482110 19.157271
Zn 2.496603 5.186913 21.531894
O 6.385019 3.482110 21.211320
O 2.496603 5.186913 23.585943
Zn 6.385019 3.482110 23.906517
Zn 2.496603 5.186913 26.281140
O 6.385019 3.482110 25.960566
O 2.496603 5.186913 28.335189
Zn 6.385019 3.482110 28.655763
Zn 2.496603 5.186913 31.030386
O 6.385019 3.482110 30.709812
O 2.496603 5.186913 33.084435
Zn 4.137620 6.371784 23.906517
Zn 0.249205 8.076588 26.281140
O 4.137620 6.371784 25.960566
O 0.249205 8.076588 28.335189
Zn 4.137620 6.371784 28.655763
Zn 0.249205 8.076588 31.030386
O 4.137620 6.371784 30.709812
O 0.249205 8.076588 33.084435
Zn 4.137620 6.371784 33.405009
Zn 0.249205 8.076588 35.779632
O 4.137620 6.371784 35.459058
O 0.249205 8.076588 37.833681
