108
A
Zn 2.293697 0.692981 4.440482
Zn -2.001242 2.255799 6.636023
O 2.293697 0.692981 6.537223
O -2.001242 2.255799 8.732764
Zn 2.293697 0.692981 8.831564
Zn -2.001242 2.255799 11.027105
O 2.293697 0.692981 10.928305
O -2.001242 2.255799 13.123846
Zn 2.293697 0.692981 13.222646
Zn -2.001242 2.255799 15.418187
O 2.293697 0.692981 15.319387
O -2.001242 2.255799 17.514928
Zn -0.440991 3.641762 8.831564
Zn -4.735931 5.204580 11.027105
O -0.440991 3.641762 10.928305
O -4.735931 5.204580 13.123846
Zn -0.440991 3.641762 13.222646
Zn -4.735931 5.204580 15.418187
O -0.440991 3.641762 15.319387
O -4.735931 5.204580 17.514928
Zn -0.440991 3.641762 17.613728
Zn -4.735931 5.204580 19.809269
O -0.440991 3.641762 19.710469
O -4.735931 5.204580 21.906010
Zn -3.175680 6.590542 13.222646
Zn -7.470620 8.153361 15.418187
O -3.175680 6.590542 15.319387
O -7.470620 8.153361 17.514928
Zn -3.175680 6.590542 17.613728
Zn -7.470620 8.153361 19.809269
O -3.175680 6.590542 19.710469
O -7.470620 8.153361 21.906010
Zn -3.175680 6.590542 22.004810
Zn -7.470620 8.153361 24.200351
O -3.175680 6.590542 24.101551
O -7.470620 8.153361 26.297092
Zn 5.320841 0.692981 8.831564
Zn 1.025901 2.255799 11.027105
O 5.320841 0.692981 10.928305
O 1.025901 2.255799 13.123846
Zn 5.320841 0.692981 13.222646
Zn 1.025901 2.255799 15.418187
O 5.320841 0.692981 15.319387
O 1.025901 2.255799 17.514928
Zn 5.320841 0.692981 17.613728
Zn 1.025901 2.255799 19.809269
O 5.320841 0.692981 19.710469
O 1.025901 2.255799 21.906010
Zn 2.586152 3.641762 13.222646
Zn -1.708787 5.204580 15.418187
O 2.586152 3.641762 15.319387
O -1.708787 5.204580 17.514928
Zn 2.586152 3.641762 17.613728
Zn -1.708787 5.204580 19.809269
O 2.586152 3.641762 19.710469
O -1.708787 5.204580 21.906010
Zn 2.586152 3.641762 22.004810
Zn -1.708787 5.204580 24.200351
O 2.586152 3.641762 24.101551
O -1.708787 5.204580 26.297092
Zn -0.148536 6.590542 17.613728
Zn -4.443476 8.153361 19.809269
O -0.148536 6.590542 19.710469
O -4.443476 8.153361 21.906010
Zn -0.148536 6.590542 22.004810
Zn -4.443476 8.153361 24.200351
O -0.148536 6.590542 24.101551
O -4.443476 8.153361 26.297092
Zn -0.148536 6.590542 26.395892
Zn -4.443476 8.153361 28.591433
O -0.148536 6.590542 28.492633
O -4.443476 8.153361 30.688174
Zn 8.347985 0.692981 13.222646
Zn 4.053045 2.255799 15.418187
O 8.347985 0.692981 15.319387
O 4.053045 2.255799 17.514928
Zn 8.347985 0.692981 17.613728
Zn 4.053045 2.255799 19.809269
O 8.347985 0.692981 19.710469
O 4.053045 2.255799 21.906010
Zn 8.347985 0.692981 22.004810
Zn 4.053045 2.255799 24.200351
O 8.347985 0.692981 24.101551
O 4.053045 2.255799 26.297092
Zn 5.613296 3.641762 17.613728
Zn 1.318356 5.204580 19.809269
O 5.613296 3.641762 19.710469
O 1.318356 5.204580 21.906010
Zn 5.613296 3.641762 22.004810
Zn 1.318356 5.204580 24.200351
O 5.613296 3.641762 24.101551
O 1.318356 5.204580 26.297092
Zn 5.613296 3.641762 26.395892
Zn 1.318356 5.204580 28.591433
O 5.613296 3.641762 28.492633
O 1.318356 5.204580 30.688174
Zn 2.878607 6.590542 22.004810
Zn -1.416332 8.153361 24.200351
O 2.878607 6.590542 24.101551
O -1.416332 8.153361 26.297092
Zn 2.878607 6.590542 26.395892
Zn -1.416332 8.153361 28.591433
O 2.878607 6.590542 28.492633
O -1.416332 8.153361 30.688174
Zn 2.878607 6.590542 30.786974
Zn -1.416332 8.153361 32.982515
O 2.878607 6.590542 32.883715
O -1.416332 8.153361 35.079256
