108
A
Zn 2.428690 0.503382 5.353655
Zn -1.015157 2.332111 7.892437
O 2.428690 0.503382 7.340252
O -1.015157 2.332111 9.879034
Zn 2.428690 0.503382 10.431218
Zn -1.015157 2.332111 12.970000
O 2.428690 0.503382 12.417815
O -1.015157 2.332111 14.956597
Zn 2.428690 0.503382 15.508781
Zn -1.015157 2.332111 18.047563
O 2.428690 0.503382 17.495378
O -1.015157 2.332111 20.034160
Zn 0.627974 3.338876 10.431218
Zn -2.815873 5.167605 12.970000
O 0.627974 3.338876 12.417815
O -2.815873 5.167605 14.956597
Zn 0.627974 3.338876 15.508781
Zn -2.815873 5.167605 18.047563
O 0.627974 3.338876 17.495378
O -2.815873 5.167605 20.034160
Zn 0.627974 3.338876 20.586344
Zn -2.815873 5.167605 23.125126
O 0.627974 3.338876 22.572941
O -2.815873 5.167605 25.111723
Zn -1.172742 6.174369 15.508781
Zn -4.616589 8.003098 18.047563
O -1.172742 6.174369 17.495378
O -4.616589 8.003098 20.034160
Zn -1.172742 6.174369 20.586344
Zn -4.616589 8.003098 23.125126
O -1.172742 6.174369 22.572941
O -4.616589 8.003098 25.111723
Zn -1.172742 6.174369 25.663907
Zn -4.616589 8.003098 28.202689
O -1.172742 6.174369 27.650504
O -4.616589 8.003098 30.189286
Zn 5.642938 0.503382 10.431218
Zn 2.199091 2.332111 12.970000
O 5.642938 0.503382 12.417815
O 2.199091 2.332111 14.956597
Zn 5.642938 0.503382 15.508781
Zn 2.199091 2.332111 18.047563
O 5.642938 0.503382 17.495378
O 2.199091 2.332111 20.034160
Zn 5.642938 0.503382 20.586344
Zn 2.199091 2.332111 23.125126
O 5.642938 0.503382 22.572941
O 2.199091 2.332111 25.111723
Zn 3.842222 3.338876 15.508781
Zn 0.398375 5.167605 18.047563
O 3.842222 3.338876 17.495378
O 0.398375 5.167605 20.034160
Zn 3.842222 3.338876 20.586344
Zn 0.398375 5.167605 23.125126
O 3.842222 3.338876 22.572941
O 0.398375 5.167605 25.111723
Zn 3.842222 3.338876 25.663907
Zn 0.398375 5.167605 28.202689
O 3.842222 3.338876 27.650504
O 0.398375 5.167605 30.189286
Zn 2.041506 6.174369 20.586344
Zn -1.402340 8.003098 23.125126
O 2.041506 6.174369 22.572941
O -1.402340 8.003098 25.111723
Zn 2.041506 6.174369 25.663907
Zn -1.402340 8.003098 28.202689
O 2.041506 6.174369 27.650504
O -1.402340 8.003098 30.189286
Zn 2.041506 6.174369 30.741470
Zn -1.402340 8.003098 33.280252
O 2.041506 6.174369 32.728067
O -1.402340 8.003098 35.266849
Zn 8.857186 0.503382 15.508781
Zn 5.413340 2.332111 18.047563
O 8.857186 0.503382 17.495378
O 5.413340 2.332111 20.034160
Zn 8.857186 0.503382 20.586344
Zn 5.413340 2.332111 23.125126
O 8.857186 0.503382 22.572941
O 5.413340 2.332111 25.111723
Zn 8.857186 0.503382 25.663907
Zn 5.413340 2.332111 28.202689
O 8.857186 0.503382 27.650504
O 5.413340 2.332111 30.189286
Zn 7.056470 3.338876 20.586344
Zn 3.612624 5.167605 23.125126
O 7.056470 3.338876 22.572941
O 3.612624 5.167605 25.111723
Zn 7.056470 3.338876 25.663907
Zn 3.612624 5.167605 28.202689
O 7.056470 3.338876 27.650504
O 3.612624 5.167605 30.189286
Zn 7.056470 3.338876 30.741470
Zn 3.612624 5.167605 33.280252
O 7.056470 3.338876 32.728067
O 3.612624 5.167605 35.266849
Zn 5.255755 6.174369 25.663907
Zn 1.811908 8.003098 28.202689
O 5.255755 6.174369 27.650504
O 1.811908 8.003098 30.189286
Zn 5.255755 6.174369 30.741470
Zn 1.811908 8.003098 33.280252
O 5.255755 6.174369 32.728067
O 1.811908 8.003098 35.266849
Zn 5.255755 6.174369 35.819033
Zn 1.811908 8.003098 38.357815
O 5.255755 6.174369 37.805630
O 1.811908 8.003098 40.344412
