108
A
Zn 2.431147 0.495434 5.394702
Zn -0.968872 2.335134 7.948407
O 2.431147 0.495434 7.373823
O -0.968872 2.335134 9.927528
Zn 2.431147 0.495434 10.502112
Zn -0.968872 2.335134 13.055817
O 2.431147 0.495434 12.481233
O -0.968872 2.335134 15.034938
Zn 2.431147 0.495434 15.609522
Zn -0.968872 2.335134 18.163227
O 2.431147 0.495434 17.588643
O -0.968872 2.335134 20.142348
Zn 0.671039 3.326002 10.502112
Zn -2.728981 5.165702 13.055817
O 0.671039 3.326002 12.481233
O -2.728981 5.165702 15.034938
Zn 0.671039 3.326002 15.609522
Zn -2.728981 5.165702 18.163227
O 0.671039 3.326002 17.588643
O -2.728981 5.165702 20.142348
Zn 0.671039 3.326002 20.716932
Zn -2.728981 5.165702 23.270637
O 0.671039 3.326002 22.696053
O -2.728981 5.165702 25.249758
Zn -1.089069 6.156570 15.609522
Zn -4.489089 7.996270 18.163227
O -1.089069 6.156570 17.588643
O -4.489089 7.996270 20.142348
Zn -1.089069 6.156570 20.716932
Zn -4.489089 7.996270 23.270637
O -1.089069 6.156570 22.696053
O -4.489089 7.996270 25.249758
Zn -1.089069 6.156570 25.824342
Zn -4.489089 7.996270 28.378047
O -1.089069 6.156570 27.803463
O -4.489089 7.996270 30.357168
Zn 5.653531 0.495434 10.502112
Zn 2.253511 2.335134 13.055817
O 5.653531 0.495434 12.481233
O 2.253511 2.335134 15.034938
Zn 5.653531 0.495434 15.609522
Zn 2.253511 2.335134 18.163227
O 5.653531 0.495434 17.588643
O 2.253511 2.335134 20.142348
Zn 5.653531 0.495434 20.716932
Zn 2.253511 2.335134 23.270637
O 5.653531 0.495434 22.696053
O 2.253511 2.335134 25.249758
Zn 3.893422 3.326002 15.609522
Zn 0.493403 5.165702 18.163227
O 3.893422 3.326002 17.588643
O 0.493403 5.165702 20.142348
Zn 3.893422 3.326002 20.716932
Zn 0.493403 5.165702 23.270637
O 3.893422 3.326002 22.696053
O 0.493403 5.165702 25.249758
Zn 3.893422 3.326002 25.824342
Zn 0.493403 5.165702 28.378047
O 3.893422 3.326002 27.803463
O 0.493403 5.165702 30.357168
Zn 2.133314 6.156570 20.716932
Zn -1.266706 7.996270 23.270637
O 2.133314 6.156570 22.696053
O -1.266706 7.996270 25.249758
Zn 2.133314 6.156570 25.824342
Zn -1.266706 7.996270 28.378047
O 2.133314 6.156570 27.803463
O -1.266706 7.996270 30.357168
Zn 2.133314 6.156570 30.931752
Zn -1.266706 7.996270 33.485457
O 2.133314 6.156570 32.910873
O -1.266706 7.996270 35.464578
Zn 8.875914 0.495434 15.609522
Zn 5.475894 2.335134 18.163227
O 8.875914 0.495434 17.588643
O 5.475894 2.335134 20.142348
Zn 8.875914 0.495434 20.716932
Zn 5.475894 2.335134 23.270637
O 8.875914 0.495434 22.696053
O 5.475894 2.335134 25.249758
Zn 8.875914 0.495434 25.824342
Zn 5.475894 2.335134 28.378047
O 8.875914 0.495434 27.803463
O 5.475894 2.335134 30.357168
Zn 7.115806 3.326002 20.716932
Zn 3.715786 5.165702 23.270637
O 7.115806 3.326002 22.696053
O 3.715786 5.165702 25.249758
Zn 7.115806 3.326002 25.824342
Zn 3.715786 5.165702 28.378047
O 7.115806 3.326002 27.803463
O 3.715786 5.165702 30.357168
Zn 7.115806 3.326002 30.931752
Zn 3.715786 5.165702 33.485457
O 7.115806 3.326002 32.910873
O 3.715786 5.165702 35.464578
Zn 5.355697 6.156570 25.824342
Zn 1.955678 7.996270 28.378047
O 5.355697 6.156570 27.803463
O 1.955678 7.996270 30.357168
Zn 5.355697 6.156570 30.931752
Zn 1.955678 7.996270 33.485457
O 5.355697 6.156570 32.910873
O 1.955678 7.996270 35.464578
Zn 5.355697 6.156570 36.039162
Zn 1.955678 7.996270 38.592867
O 5.355697 6.156570 38.018283
O 1.955678 7.996270 40.571988
