108
A
Zn 2.233750 0.744583 1.053000
Zn -2.233750 2.233750 3.159000
O 2.233750 0.744583 3.159000
O -2.233750 2.233750 1.053000
Zn 2.233750 0.744583 5.265000
Zn -2.233750 2.233750 7.371000
O 2.233750 0.744583 7.371000
O -2.233750 2.233750 5.265000
Zn 2.233750 0.744583 9.477000
Zn -2.233750 2.233750 11.583000
O 2.233750 0.744583 11.583000
O -2.233750 2.233750 9.477000
Zn -0.744583 3.722917 1.053000
Zn -5.212084 5.212084 3.159000
O -0.744583 3.722917 3.159000
O -5.212084 5.212084 1.053000
Zn -0.744583 3.722917 5.265000
Zn -5.212084 5.212084 7.371000
O -0.744583 3.722917 7.371000
O -5.212084 5.212084 5.265000
Zn -0.744583 3.722917 9.477000
Zn -5.212084 5.212084 11.583000
O -0.744583 3.722917 11.583000
O -5.212084 5.212084 9.477000
Zn -3.722917 6.701251 1.053000
Zn -8.190418 8.190418 3.159000
O -3.722917 6.701251 3.159000
O -8.190418 8.190418 1.053000
Zn -3.722917 6.701251 5.265000
Zn -8.190418 8.190418 7.371000
O -3.722917 6.701251 7.371000
O -8.190418 8.190418 5.265000
Zn -3.722917 6.701251 9.477000
Zn -8.190418 8.190418 11.583000
O -3.722917 6.701251 11.583000
O -8.190418 8.190418 9.477000
Zn 5.212084 0.744583 1.053000
Zn 0.744583 2.233750 3.159000
O 5.212084 0.744583 3.159000
O 0.744583 2.233750 1.053000
Zn 5.212084 0.744583 5.265000
Zn 0.744583 2.233750 7.371000
O 5.212084 0.744583 7.371000
O 0.744583 2.233750 5.265000
Zn 5.212084 0.744583 9.477000
Zn 0.744583 2.233750 11.583000
O 5.212084 0.744583 11.583000
O 0.744583 2.233750 9.477000
Zn 2.233750 3.722917 1.053000
Zn -2.233750 5.212084 3.159000
O 2.233750 3.722917 3.159000
O -2.233750 5.212084 1.053000
Zn 2.233750 3.722917 5.265000
Zn -2.233750 5.212084 7.371000
O 2.233750 3.722917 7.371000
O -2.233750 5.212084 5.265000
Zn 2.233750 3.722917 9.477000
Zn -2.233750 5.212084 11.583000
O 2.233750 3.722917 11.583000
O -2.233750 5.212084 9.477000
Zn -0.744583 6.701251 1.053000
Zn -5.212084 8.190418 3.159000
O -0.744583 6.701251 3.159000
O -5.212084 8.190418 1.053000
Zn -0.744583 6.701251 5.265000
Zn -5.212084 8.190418 7.371000
O -0.744583 6.701251 7.371000
O -5.212084 8.190418 5.265000
Zn -0.744583 6.701251 9.477000
Zn -5.212084 8.190418 11.583000
O -0.744583 6.701251 11.583000
O -5.212084 8.190418 9.477000
Zn 8.190418 0.744583 1.053000
Zn 3.722917 2.233750 3.159000
O 8.190418 0.744583 3.159000
O 3.722917 2.233750 1.053000
Zn 8.190418 0.744583 5.265000
Zn 3.722917 2.233750 7.371000
O 8.190418 0.744583 7.371000
O 3.722917 2.233750 5.265000
Zn 8.190418 0.744583 9.477000
Zn 3.722917 2.233750 11.583000
O 8.190418 0.744583 11.583000
O 3.722917 2.233750 9.477000
Zn 5.212084 3.722917 1.053000
Zn 0.744583 5.212084 3.159000
O 5.212084 3.722917 3.159000
O 0.744583 5.212084 1.053000
Zn 5.212084 3.722917 5.265000
Zn 0.744583 5.212084 7.371000
O 5.212084 3.722917 7.371000
O 0.744583 5.212084 5.265000
Zn 5.212084 3.722917 9.477000
Zn 0.744583 5.212084 11.583000
O 5.212084 3.722917 11.583000
O 0.744583 5.212084 9.477000
Zn 2.233750 6.701251 1.053000
Zn -2.233750 8.190418 3.159000
O 2.233750 6.701251 3.159000
O -2.233750 8.190418 1.053000
Zn 2.233750 6.701251 5.265000
Zn -2.233750 8.190418 7.371000
O 2.233750 6.701251 7.371000
O -2.233750 8.190418 5.265000
Zn 2.233750 6.701251 9.477000
Zn -2.233750 8.190418 11.583000
O 2.233750 6.701251 11.583000
O -2.233750 8.190418 9.477000
