108
A
Zn 2.416015 0.535421 1.007129
Zn -1.197453 2.319775 3.486217
O 2.416015 0.535421 3.951046
O -1.197453 2.319775 1.471958
Zn 2.416015 0.535421 5.965304
Zn -1.197453 2.319775 8.444392
O 2.416015 0.535421 8.909221
O -1.197453 2.319775 6.430133
Zn 2.416015 0.535421 10.923479
Zn -1.197453 2.319775 13.402567
O 2.416015 0.535421 13.867396
O -1.197453 2.319775 11.388308
Zn 0.452869 3.390616 1.007129
Zn -3.160598 5.174971 3.486217
O 0.452869 3.390616 3.951046
O -3.160598 5.174971 1.471958
Zn 0.452869 3.390616 5.965304
Zn -3.160598 5.174971 8.444392
O 0.452869 3.390616 8.909221
O -3.160598 5.174971 6.430133
Zn 0.452869 3.390616 10.923479
Zn -3.160598 5.174971 13.402567
O 0.452869 3.390616 13.867396
O -3.160598 5.174971 11.388308
Zn -1.510277 6.245812 1.007129
Zn -5.123744 8.030166 3.486217
O -1.510277 6.245812 3.951046
O -5.123744 8.030166 1.471958
Zn -1.510277 6.245812 5.965304
Zn -5.123744 8.030166 8.444392
O -1.510277 6.245812 8.909221
O -5.123744 8.030166 6.430133
Zn -1.510277 6.245812 10.923479
Zn -5.123744 8.030166 13.402567
O -1.510277 6.245812 13.867396
O -5.123744 8.030166 11.388308
Zn 5.597723 0.535421 1.007129
Zn 1.984256 2.319775 3.486217
O 5.597723 0.535421 3.951046
O 1.984256 2.319775 1.471958
Zn 5.597723 0.535421 5.965304
Zn 1.984256 2.319775 8.444392
O 5.597723 0.535421 8.909221
O 1.984256 2.319775 6.430133
Zn 5.597723 0.535421 10.923479
Zn 1.984256 2.319775 13.402567
O 5.597723 0.535421 13.867396
O 1.984256 2.319775 11.388308
Zn 3.634578 3.390616 1.007129
Zn 0.021110 5.174971 3.486217
O 3.634578 3.390616 3.951046
O 0.021110 5.174971 1.471958
Zn 3.634578 3.390616 5.965304
Zn 0.021110 5.174971 8.444392
O 3.634578 3.390616 8.909221
O 0.021110 5.174971 6.430133
Zn 3.634578 3.390616 10.923479
Zn 0.021110 5.174971 13.402567
O 3.634578 3.390616 13.867396
O 0.021110 5.174971 11.388308
Zn 1.671432 6.245812 1.007129
Zn -1.942036 8.030166 3.486217
O 1.671432 6.245812 3.951046
O -1.942036 8.030166 1.471958
Zn 1.671432 6.245812 5.965304
Zn -1.942036 8.030166 8.444392
O 1.671432 6.245812 8.909221
O -1.942036 8.030166 6.430133
Zn 1.671432 6.245812 10.923479
Zn -1.942036 8.030166 13.402567
O 1.671432 6.245812 13.867396
O -1.942036 8.030166 11.388308
Zn 8.779432 0.535421 1.007129
Zn 5.165964 2.319775 3.486217
O 8.779432 0.535421 3.951046
O 5.165964 2.319775 1.471958
Zn 8.779432 0.535421 5.965304
Zn 5.165964 2.319775 8.444392
O 8.779432 0.535421 8.909221
O 5.165964 2.319775 6.430133
Zn 8.779432 0.535421 10.923479
Zn 5.165964 2.319775 13.402567
O 8.779432 0.535421 13.867396
O 5.165964 2.319775 11.388308
Zn 6.816286 3.390616 1.007129
Zn 3.202818 5.174971 3.486217
O 6.816286 3.390616 3.951046
O 3.202818 5.174971 1.471958
Zn 6.816286 3.390616 5.965304
Zn 3.202818 5.174971 8.444392
O 6.816286 3.390616 8.909221
O 3.202818 5.174971 6.430133
Zn 6.816286 3.390616 10.923479
Zn 3.202818 5.174971 13.402567
O 6.816286 3.390616 13.867396
O 3.202818 5.174971 11.388308
Zn 4.853140 6.245812 1.007129
Zn 1.239672 8.030166 3.486217
O 4.853140 6.245812 3.951046
O 1.239672 8.030166 1.471958
Zn 4.853140 6.245812 5.965304
Zn 1.239672 8.030166 8.444392
O 4.853140 6.245812 8.909221
O 1.239672 8.030166 6.430133
Zn 4.853140 6.245812 10.923479
Zn 1.239672 8.030166 13.402567
O 4.853140 6.245812 13.867396
O 1.239672 8.030166 11.388308
