108
A
Zn 2.333248 0.653459 1.041985
Zn -1.813328 2.272336 3.307169
O 2.333248 0.653459 3.488383
O -1.813328 2.272336 1.223199
Zn 2.333248 0.653459 5.572353
Zn -1.813328 2.272336 7.837537
O 2.333248 0.653459 8.018751
O -1.813328 2.272336 5.753567
Zn 2.333248 0.653459 10.102721
Zn -1.813328 2.272336 12.367905
O 2.333248 0.653459 12.549119
O -1.813328 2.272336 10.283935
Zn -0.211939 3.579254 1.041985
Zn -4.358515 5.198131 3.307169
O -0.211939 3.579254 3.488383
O -4.358515 5.198131 1.223199
Zn -0.211939 3.579254 5.572353
Zn -4.358515 5.198131 7.837537
O -0.211939 3.579254 8.018751
O -4.358515 5.198131 5.753567
Zn -0.211939 3.579254 10.102721
Zn -4.358515 5.198131 12.367905
O -0.211939 3.579254 12.549119
O -4.358515 5.198131 10.283935
Zn -2.757126 6.505048 1.041985
Zn -6.903702 8.123926 3.307169
O -2.757126 6.505048 3.488383
O -6.903702 8.123926 1.223199
Zn -2.757126 6.505048 5.572353
Zn -6.903702 8.123926 7.837537
O -2.757126 6.505048 8.018751
O -6.903702 8.123926 5.753567
Zn -2.757126 6.505048 10.102721
Zn -6.903702 8.123926 12.367905
O -2.757126 6.505048 12.549119
O -6.903702 8.123926 10.283935
Zn 5.398355 0.653459 1.041985
Zn 1.251779 2.272336 3.307169
O 5.398355 0.653459 3.488383
O 1.251779 2.272336 1.223199
Zn 5.398355 0.653459 5.572353
Zn 1.251779 2.272336 7.837537
O 5.398355 0.653459 8.018751
O 1.251779 2.272336 5.753567
Zn 5.398355 0.653459 10.102721
Zn 1.251779 2.272336 12.367905
O 5.398355 0.653459 12.549119
O 1.251779 2.272336 10.283935
Zn 2.853168 3.579254 1.041985
Zn -1.293408 5.198131 3.307169
O 2.853168 3.579254 3.488383
O -1.293408 5.198131 1.223199
Zn 2.853168 3.579254 5.572353
Zn -1.293408 5.198131 7.837537
O 2.853168 3.579254 8.018751
O -1.293408 5.198131 5.753567
Zn 2.853168 3.579254 10.102721
Zn -1.293408 5.198131 12.367905
O 2.853168 3.579254 12.549119
O -1.293408 5.198131 10.283935
Zn 0.307981 6.505048 1.041985
Zn -3.838595 8.123926 3.307169
O 0.307981 6.505048 3.488383
O -3.838595 8.123926 1.223199
Zn 0.307981 6.505048 5.572353
Zn -3.838595 8.123926 7.837537
O 0.307981 6.505048 8.018751
O -3.838595 8.123926 5.753567
Zn 0.307981 6.505048 10.102721
Zn -3.838595 8.123926 12.367905
O 0.307981 6.505048 12.549119
O -3.838595 8.123926 10.283935
Zn 8.463462 0.653459 1.041985
Zn 4.316886 2.272336 3.307169
O 8.463462 0.653459 3.488383
O 4.316886 2.272336 1.223199
Zn 8.463462 0.653459 5.572353
Zn 4.316886 2.272336 7.837537
O 8.463462 0.653459 8.018751
O 4.316886 2.272336 5.753567
Zn 8.463462 0.653459 10.102721
Zn 4.316886 2.272336 12.367905
O 8.463462 0.653459 12.549119
O 4.316886 2.272336 10.283935
Zn 5.918275 3.579254 1.041985
Zn 1.771699 5.198131 3.307169
O 5.918275 3.579254 3.488383
O 1.771699 5.198131 1.223199
Zn 5.918275 3.579254 5.572353
Zn 1.771699 5.198131 7.837537
O 5.918275 3.579254 8.018751
O 1.771699 5.198131 5.753567
Zn 5.918275 3.579254 10.102721
Zn 1.771699 5.198131 12.367905
O 5.918275 3.579254 12.549119
O 1.771699 5.198131 10.283935
Zn 3.373088 6.505048 1.041985
Zn -0.773488 8.123926 3.307169
O 3.373088 6.505048 3.488383
O -0.773488 8.123926 1.223199
Zn 3.373088 6.505048 5.572353
Zn -0.773488 8.123926 7.837537
O 3.373088 6.505048 8.018751
O -0.773488 8.123926 5.753567
Zn 3.373088 6.505048 10.102721
Zn -0.773488 8.123926 12.367905
O 3.373088 6.505048 12.549119
O -0.773488 8.123926 10.283935
