108
A
Zn 2.420745 0.524697 1.002718
Zn -1.137193 2.323931 3.501703
O 2.420745 0.524697 3.995253
O -1.137193 2.323931 1.496268
Zn 2.420745 0.524697 6.000689
Zn -1.137193 2.323931 8.499674
O 2.420745 0.524697 8.993224
O -1.137193 2.323931 6.494239
Zn 2.420745 0.524697 10.998660
Zn -1.137193 2.323931 13.497645
O 2.420745 0.524697 13.991195
O -1.137193 2.323931 11.492210
Zn 0.511743 3.373326 1.002718
Zn -3.046195 5.172559 3.501703
O 0.511743 3.373326 3.995253
O -3.046195 5.172559 1.496268
Zn 0.511743 3.373326 6.000689
Zn -3.046195 5.172559 8.499674
O 0.511743 3.373326 8.993224
O -3.046195 5.172559 6.494239
Zn 0.511743 3.373326 10.998660
Zn -3.046195 5.172559 13.497645
O 0.511743 3.373326 13.991195
O -3.046195 5.172559 11.492210
Zn -1.397260 6.221954 1.002718
Zn -4.955198 8.021187 3.501703
O -1.397260 6.221954 3.995253
O -4.955198 8.021187 1.496268
Zn -1.397260 6.221954 6.000689
Zn -4.955198 8.021187 8.499674
O -1.397260 6.221954 8.993224
O -4.955198 8.021187 6.494239
Zn -1.397260 6.221954 10.998660
Zn -4.955198 8.021187 13.497645
O -1.397260 6.221954 13.991195
O -4.955198 8.021187 11.492210
Zn 5.613300 0.524697 1.002718
Zn 2.055362 2.323931 3.501703
O 5.613300 0.524697 3.995253
O 2.055362 2.323931 1.496268
Zn 5.613300 0.524697 6.000689
Zn 2.055362 2.323931 8.499674
O 5.613300 0.524697 8.993224
O 2.055362 2.323931 6.494239
Zn 5.613300 0.524697 10.998660
Zn 2.055362 2.323931 13.497645
O 5.613300 0.524697 13.991195
O 2.055362 2.323931 11.492210
Zn 3.704298 3.373326 1.002718
Zn 0.146360 5.172559 3.501703
O 3.704298 3.373326 3.995253
O 0.146360 5.172559 1.496268
Zn 3.704298 3.373326 6.000689
Zn 0.146360 5.172559 8.499674
O 3.704298 3.373326 8.993224
O 0.146360 5.172559 6.494239
Zn 3.704298 3.373326 10.998660
Zn 0.146360 5.172559 13.497645
O 3.704298 3.373326 13.991195
O 0.146360 5.172559 11.492210
Zn 1.795295 6.221954 1.002718
Zn -1.762643 8.021187 3.501703
O 1.795295 6.221954 3.995253
O -1.762643 8.021187 1.496268
Zn 1.795295 6.221954 6.000689
Zn -1.762643 8.021187 8.499674
O 1.795295 6.221954 8.993224
O -1.762643 8.021187 6.494239
Zn 1.795295 6.221954 10.998660
Zn -1.762643 8.021187 13.497645
O 1.795295 6.221954 13.991195
O -1.762643 8.021187 11.492210
Zn 8.805855 0.524697 1.002718
Zn 5.247917 2.323931 3.501703
O 8.805855 0.524697 3.995253
O 5.247917 2.323931 1.496268
Zn 8.805855 0.524697 6.000689
Zn 5.247917 2.323931 8.499674
O 8.805855 0.524697 8.993224
O 5.247917 2.323931 6.494239
Zn 8.805855 0.524697 10.998660
Zn 5.247917 2.323931 13.497645
O 8.805855 0.524697 13.991195
O 5.247917 2.323931 11.492210
Zn 6.896853 3.373326 1.002718
Zn 3.338915 5.172559 3.501703
O 6.896853 3.373326 3.995253
O 3.338915 5.172559 1.496268
Zn 6.896853 3.373326 6.000689
Zn 3.338915 5.172559 8.499674
O 6.896853 3.373326 8.993224
O 3.338915 5.172559 6.494239
Zn 6.896853 3.373326 10.998660
Zn 3.338915 5.172559 13.497645
O 6.896853 3.373326 13.991195
O 3.338915 5.172559 11.492210
Zn 4.987850 6.221954 1.002718
Zn 1.429912 8.021187 3.501703
O 4.987850 6.221954 3.995253
O 1.429912 8.021187 1.496268
Zn 4.987850 6.221954 6.000689
Zn 1.429912 8.021187 8.499674
O 4.987850 6.221954 8.993224
O 1.429912 8.021187 6.494239
Zn 4.987850 6.221954 10.998660
Zn 1.429912 8.021187 13.497645
O 4.987850 6.221954 13.991195
O 1.429912 8.021187 11.492210
