108
A
Zn 2.366607 0.614472 4.803907
Zn -1.619222 2.288337 7.138734
O 2.366607 0.614472 6.870228
O -1.619222 2.288337 9.205055
Zn 2.366607 0.614472 9.473561
Zn -1.619222 2.288337 11.808388
O 2.366607 0.614472 11.539882
O -1.619222 2.288337 13.874709
Zn 2.366607 0.614472 14.143215
Zn -1.619222 2.288337 16.478042
O 2.366607 0.614472 16.209536
O -1.619222 2.288337 18.544363
Zn 0.010922 3.517281 9.473561
Zn -3.974907 5.191146 11.808388
O 0.010922 3.517281 11.539882
O -3.974907 5.191146 13.874709
Zn 0.010922 3.517281 14.143215
Zn -3.974907 5.191146 16.478042
O 0.010922 3.517281 16.209536
O -3.974907 5.191146 18.544363
Zn 0.010922 3.517281 18.812869
Zn -3.974907 5.191146 21.147696
O 0.010922 3.517281 20.879190
O -3.974907 5.191146 23.214017
Zn -2.344763 6.420090 14.143215
Zn -6.330593 8.093955 16.478042
O -2.344763 6.420090 16.209536
O -6.330593 8.093955 18.544363
Zn -2.344763 6.420090 18.812869
Zn -6.330593 8.093955 21.147696
O -2.344763 6.420090 20.879190
O -6.330593 8.093955 23.214017
Zn -2.344763 6.420090 23.482523
Zn -6.330593 8.093955 25.817350
O -2.344763 6.420090 25.548844
O -6.330593 8.093955 27.883671
Zn 5.469677 0.614472 9.473561
Zn 1.483848 2.288337 11.808388
O 5.469677 0.614472 11.539882
O 1.483848 2.288337 13.874709
Zn 5.469677 0.614472 14.143215
Zn 1.483848 2.288337 16.478042
O 5.469677 0.614472 16.209536
O 1.483848 2.288337 18.544363
Zn 5.469677 0.614472 18.812869
Zn 1.483848 2.288337 21.147696
O 5.469677 0.614472 20.879190
O 1.483848 2.288337 23.214017
Zn 3.113992 3.517281 14.143215
Zn -0.871837 5.191146 16.478042
O 3.113992 3.517281 16.209536
O -0.871837 5.191146 18.544363
Zn 3.113992 3.517281 18.812869
Zn -0.871837 5.191146 21.147696
O 3.113992 3.517281 20.879190
O -0.871837 5.191146 23.214017
Zn 3.113992 3.517281 23.482523
Zn -0.871837 5.191146 25.817350
O 3.113992 3.517281 25.548844
O -0.871837 5.191146 27.883671
Zn 0.758307 6.420090 18.812869
Zn -3.227522 8.093955 21.147696
O 0.758307 6.420090 20.879190
O -3.227522 8.093955 23.214017
Zn 0.758307 6.420090 23.482523
Zn -3.227522 8.093955 25.817350
O 0.758307 6.420090 25.548844
O -3.227522 8.093955 27.883671
Zn 0.758307 6.420090 28.152177
Zn -3.227522 8.093955 30.487004
O 0.758307 6.420090 30.218498
O -3.227522 8.093955 32.553325
Zn 8.572748 0.614472 14.143215
Zn 4.586918 2.288337 16.478042
O 8.572748 0.614472 16.209536
O 4.586918 2.288337 18.544363
Zn 8.572748 0.614472 18.812869
Zn 4.586918 2.288337 21.147696
O 8.572748 0.614472 20.879190
O 4.586918 2.288337 23.214017
Zn 8.572748 0.614472 23.482523
Zn 4.586918 2.288337 25.817350
O 8.572748 0.614472 25.548844
O 4.586918 2.288337 27.883671
Zn 6.217062 3.517281 18.812869
Zn 2.231233 5.191146 21.147696
O 6.217062 3.517281 20.879190
O 2.231233 5.191146 23.214017
Zn 6.217062 3.517281 23.482523
Zn 2.231233 5.191146 25.817350
O 6.217062 3.517281 25.548844
O 2.231233 5.191146 27.883671
Zn 6.217062 3.517281 28.152177
Zn 2.231233 5.191146 30.487004
O 6.217062 3.517281 30.218498
O 2.231233 5.191146 32.553325
Zn 3.861377 6.420090 23.482523
Zn -0.124452 8.093955 25.817350
O 3.861377 6.420090 25.548844
O -0.124452 8.093955 27.883671
Zn 3.861377 6.420090 28.152177
Zn -0.124452 8.093955 30.487004
O 3.861377 6.420090 30.218498
O -0.124452 8.093955 32.553325
Zn 3.861377 6.420090 32.821831
Zn -0.124452 8.093955 35.156658
O 3.861377 6.420090 34.888152
O -0.124452 8.093955 37.222979
