108
A
Zn 2.407972 0.551587 5.109728
Zn -1.286895 2.313459 7.558968
O 2.407972 0.551587 7.136475
O -1.286895 2.313459 9.585715
Zn 2.407972 0.551587 10.008209
Zn -1.286895 2.313459 12.457449
O 2.407972 0.551587 12.034956
O -1.286895 2.313459 14.484196
Zn 2.407972 0.551587 14.906690
Zn -1.286895 2.313459 17.355930
O 2.407972 0.551587 16.933437
O -1.286895 2.313459 19.382677
Zn 0.363611 3.416634 10.008209
Zn -3.331256 5.178506 12.457449
O 0.363611 3.416634 12.034956
O -3.331256 5.178506 14.484196
Zn 0.363611 3.416634 14.906690
Zn -3.331256 5.178506 17.355930
O 0.363611 3.416634 16.933437
O -3.331256 5.178506 19.382677
Zn 0.363611 3.416634 19.805171
Zn -3.331256 5.178506 22.254411
O 0.363611 3.416634 21.831918
O -3.331256 5.178506 24.281158
Zn -1.680750 6.281681 14.906690
Zn -5.375617 8.043553 17.355930
O -1.680750 6.281681 16.933437
O -5.375617 8.043553 19.382677
Zn -1.680750 6.281681 19.805171
Zn -5.375617 8.043553 22.254411
O -1.680750 6.281681 21.831918
O -5.375617 8.043553 24.281158
Zn -1.680750 6.281681 24.703652
Zn -5.375617 8.043553 27.152892
O -1.680750 6.281681 26.730399
O -5.375617 8.043553 29.179639
Zn 5.573411 0.551587 10.008209
Zn 1.878544 2.313459 12.457449
O 5.573411 0.551587 12.034956
O 1.878544 2.313459 14.484196
Zn 5.573411 0.551587 14.906690
Zn 1.878544 2.313459 17.355930
O 5.573411 0.551587 16.933437
O 1.878544 2.313459 19.382677
Zn 5.573411 0.551587 19.805171
Zn 1.878544 2.313459 22.254411
O 5.573411 0.551587 21.831918
O 1.878544 2.313459 24.281158
Zn 3.529050 3.416634 14.906690
Zn -0.165817 5.178506 17.355930
O 3.529050 3.416634 16.933437
O -0.165817 5.178506 19.382677
Zn 3.529050 3.416634 19.805171
Zn -0.165817 5.178506 22.254411
O 3.529050 3.416634 21.831918
O -0.165817 5.178506 24.281158
Zn 3.529050 3.416634 24.703652
Zn -0.165817 5.178506 27.152892
O 3.529050 3.416634 26.730399
O -0.165817 5.178506 29.179639
Zn 1.484689 6.281681 19.805171
Zn -2.210178 8.043553 22.254411
O 1.484689 6.281681 21.831918
O -2.210178 8.043553 24.281158
Zn 1.484689 6.281681 24.703652
Zn -2.210178 8.043553 27.152892
O 1.484689 6.281681 26.730399
O -2.210178 8.043553 29.179639
Zn 1.484689 6.281681 29.602133
Zn -2.210178 8.043553 32.051373
O 1.484689 6.281681 31.628880
O -2.210178 8.043553 34.078120
Zn 8.738849 0.551587 14.906690
Zn 5.043982 2.313459 17.355930
O 8.738849 0.551587 16.933437
O 5.043982 2.313459 19.382677
Zn 8.738849 0.551587 19.805171
Zn 5.043982 2.313459 22.254411
O 8.738849 0.551587 21.831918
O 5.043982 2.313459 24.281158
Zn 8.738849 0.551587 24.703652
Zn 5.043982 2.313459 27.152892
O 8.738849 0.551587 26.730399
O 5.043982 2.313459 29.179639
Zn 6.694488 3.416634 19.805171
Zn 2.999621 5.178506 22.254411
O 6.694488 3.416634 21.831918
O 2.999621 5.178506 24.281158
Zn 6.694488 3.416634 24.703652
Zn 2.999621 5.178506 27.152892
O 6.694488 3.416634 26.730399
O 2.999621 5.178506 29.179639
Zn 6.694488 3.416634 29.602133
Zn 2.999621 5.178506 32.051373
O 6.694488 3.416634 31.628880
O 2.999621 5.178506 34.078120
Zn 4.650127 6.281681 24.703652
Zn 0.955260 8.043553 27.152892
O 4.650127 6.281681 26.730399
O 0.955260 8.043553 29.179639
Zn 4.650127 6.281681 29.602133
Zn 0.955260 8.043553 32.051373
O 4.650127 6.281681 31.628880
O 0.955260 8.043553 34.078120
Zn 4.650127 6.281681 34.500614
Zn 0.955260 8.043553 36.949854
O 4.650127 6.281681 36.527361
O 0.955260 8.043553 38.976601
