108
A
Zn 2.240916 0.738806 4.237188
Zn -2.208421 2.236244 6.353137
O 2.240916 0.738806 6.342557
O -2.208421 2.236244 8.458506
Zn 2.240916 0.738806 8.469086
Zn -2.208421 2.236244 10.585035
O 2.240916 0.738806 10.574455
O -2.208421 2.236244 12.690404
Zn 2.240916 0.738806 12.700984
Zn -2.208421 2.236244 14.816933
O 2.240916 0.738806 14.806353
O -2.208421 2.236244 16.922302
Zn -0.710346 3.713856 8.469086
Zn -5.159684 5.211294 10.585035
O -0.710346 3.713856 10.574455
O -5.159684 5.211294 12.690404
Zn -0.710346 3.713856 12.700984
Zn -5.159684 5.211294 14.816933
O -0.710346 3.713856 14.806353
O -5.159684 5.211294 16.922302
Zn -0.710346 3.713856 16.932882
Zn -5.159684 5.211294 19.048831
O -0.710346 3.713856 19.038251
O -5.159684 5.211294 21.154200
Zn -3.661608 6.688906 12.700984
Zn -8.110946 8.186344 14.816933
O -3.661608 6.688906 14.806353
O -8.110946 8.186344 16.922302
Zn -3.661608 6.688906 16.932882
Zn -8.110946 8.186344 19.048831
O -3.661608 6.688906 19.038251
O -8.110946 8.186344 21.154200
Zn -3.661608 6.688906 21.164780
Zn -8.110946 8.186344 23.280729
O -3.661608 6.688906 23.270149
O -8.110946 8.186344 25.386098
Zn 5.224674 0.738806 8.469086
Zn 0.775336 2.236244 10.585035
O 5.224674 0.738806 10.574455
O 0.775336 2.236244 12.690404
Zn 5.224674 0.738806 12.700984
Zn 0.775336 2.236244 14.816933
O 5.224674 0.738806 14.806353
O 0.775336 2.236244 16.922302
Zn 5.224674 0.738806 16.932882
Zn 0.775336 2.236244 19.048831
O 5.224674 0.738806 19.038251
O 0.775336 2.236244 21.154200
Zn 2.273411 3.713856 12.700984
Zn -2.175926 5.211294 14.816933
O 2.273411 3.713856 14.806353
O -2.175926 5.211294 16.922302
Zn 2.273411 3.713856 16.932882
Zn -2.175926 5.211294 19.048831
O 2.273411 3.713856 19.038251
O -2.175926 5.211294 21.154200
Zn 2.273411 3.713856 21.164780
Zn -2.175926 5.211294 23.280729
O 2.273411 3.713856 23.270149
O -2.175926 5.211294 25.386098
Zn -0.677851 6.688906 16.932882
Zn -5.127189 8.186344 19.048831
O -0.677851 6.688906 19.038251
O -5.127189 8.186344 21.154200
Zn -0.677851 6.688906 21.164780
Zn -5.127189 8.186344 23.280729
O -0.677851 6.688906 23.270149
O -5.127189 8.186344 25.386098
Zn -0.677851 6.688906 25.396678
Zn -5.127189 8.186344 27.512627
O -0.677851 6.688906 27.502047
O -5.127189 8.186344 29.617996
Zn 8.208431 0.738806 12.700984
Zn 3.759093 2.236244 14.816933
O 8.208431 0.738806 14.806353
O 3.759093 2.236244 16.922302
Zn 8.208431 0.738806 16.932882
Zn 3.759093 2.236244 19.048831
O 8.208431 0.738806 19.038251
O 3.759093 2.236244 21.154200
Zn 8.208431 0.738806 21.164780
Zn 3.759093 2.236244 23.280729
O 8.208431 0.738806 23.270149
O 3.759093 2.236244 25.386098
Zn 5.257169 3.713856 16.932882
Zn 0.807831 5.211294 19.048831
O 5.257169 3.713856 19.038251
O 0.807831 5.211294 21.154200
Zn 5.257169 3.713856 21.164780
Zn 0.807831 5.211294 23.280729
O 5.257169 3.713856 23.270149
O 0.807831 5.211294 25.386098
Zn 5.257169 3.713856 25.396678
Zn 0.807831 5.211294 27.512627
O 5.257169 3.713856 27.502047
O 0.807831 5.211294 29.617996
Zn 2.305906 6.688906 21.164780
Zn -2.143431 8.186344 23.280729
O 2.305906 6.688906 23.270149
O -2.143431 8.186344 25.386098
Zn 2.305906 6.688906 25.396678
Zn -2.143431 8.186344 27.512627
O 2.305906 6.688906 27.502047
O -2.143431 8.186344 29.617996
Zn 2.305906 6.688906 29.628576
Zn -2.143431 8.186344 31.744525
O 2.305906 6.688906 31.733945
O -2.143431 8.186344 33.849894
