108
A
Zn 2.278072 0.707226 1.050061
Zn -2.066855 2.249764 3.220729
O 2.278072 0.707226 3.291276
O -2.066855 2.249764 1.120608
Zn 2.278072 0.707226 5.391398
Zn -2.066855 2.249764 7.562066
O 2.278072 0.707226 7.632613
O -2.066855 2.249764 5.461945
Zn 2.278072 0.707226 9.732735
Zn -2.066855 2.249764 11.903403
O 2.278072 0.707226 11.973950
O -2.066855 2.249764 9.803282
Zn -0.524296 3.664216 1.050061
Zn -4.869222 5.206753 3.220729
O -0.524296 3.664216 3.291276
O -4.869222 5.206753 1.120608
Zn -0.524296 3.664216 5.391398
Zn -4.869222 5.206753 7.562066
O -0.524296 3.664216 7.632613
O -4.869222 5.206753 5.461945
Zn -0.524296 3.664216 9.732735
Zn -4.869222 5.206753 11.903403
O -0.524296 3.664216 11.973950
O -4.869222 5.206753 9.803282
Zn -3.326664 6.621206 1.050061
Zn -7.671590 8.163743 3.220729
O -3.326664 6.621206 3.291276
O -7.671590 8.163743 1.120608
Zn -3.326664 6.621206 5.391398
Zn -7.671590 8.163743 7.562066
O -3.326664 6.621206 7.632613
O -7.671590 8.163743 5.461945
Zn -3.326664 6.621206 9.732735
Zn -7.671590 8.163743 11.903403
O -3.326664 6.621206 11.973950
O -7.671590 8.163743 9.803282
Zn 5.291657 0.707226 1.050061
Zn 0.946731 2.249764 3.220729
O 5.291657 0.707226 3.291276
O 0.946731 2.249764 1.120608
Zn 5.291657 0.707226 5.391398
Zn 0.946731 2.249764 7.562066
O 5.291657 0.707226 7.632613
O 0.946731 2.249764 5.461945
Zn 5.291657 0.707226 9.732735
Zn 0.946731 2.249764 11.903403
O 5.291657 0.707226 11.973950
O 0.946731 2.249764 9.803282
Zn 2.489290 3.664216 1.050061
Zn -1.855637 5.206753 3.220729
O 2.489290 3.664216 3.291276
O -1.855637 5.206753 1.120608
Zn 2.489290 3.664216 5.391398
Zn -1.855637 5.206753 7.562066
O 2.489290 3.664216 7.632613
O -1.855637 5.206753 5.461945
Zn 2.489290 3.664216 9.732735
Zn -1.855637 5.206753 11.903403
O 2.489290 3.664216 11.973950
O -1.855637 5.206753 9.803282
Zn -0.313078 6.621206 1.050061
Zn -4.658005 8.163743 3.220729
O -0.313078 6.621206 3.291276
O -4.658005 8.163743 1.120608
Zn -0.313078 6.621206 5.391398
Zn -4.658005 8.163743 7.562066
O -0.313078 6.621206 7.632613
O -4.658005 8.163743 5.461945
Zn -0.313078 6.621206 9.732735
Zn -4.658005 8.163743 11.903403
O -0.313078 6.621206 11.973950
O -4.658005 8.163743 9.803282
Zn 8.305243 0.707226 1.050061
Zn 3.960316 2.249764 3.220729
O 8.305243 0.707226 3.291276
O 3.960316 2.249764 1.120608
Zn 8.305243 0.707226 5.391398
Zn 3.960316 2.249764 7.562066
O 8.305243 0.707226 7.632613
O 3.960316 2.249764 5.461945
Zn 8.305243 0.707226 9.732735
Zn 3.960316 2.249764 11.903403
O 8.305243 0.707226 11.973950
O 3.960316 2.249764 9.803282
Zn 5.502875 3.664216 1.050061
Zn 1.157948 5.206753 3.220729
O 5.502875 3.664216 3.291276
O 1.157948 5.206753 1.120608
Zn 5.502875 3.664216 5.391398
Zn 1.157948 5.206753 7.562066
O 5.502875 3.664216 7.632613
O 1.157948 5.206753 5.461945
Zn 5.502875 3.664216 9.732735
Zn 1.157948 5.206753 11.903403
O 5.502875 3.664216 11.973950
O 1.157948 5.206753 9.803282
Zn 2.700507 6.621206 1.050061
Zn -1.644420 8.163743 3.220729
O 2.700507 6.621206 3.291276
O -1.644420 8.163743 1.120608
Zn 2.700507 6.621206 5.391398
Zn -1.644420 8.163743 7.562066
O 2.700507 6.621206 7.632613
O -1.644420 8.163743 5.461945
Zn 2.700507 6.621206 9.732735
Zn -1.644420 8.163743 11.903403
O 2.700507 6.621206 11.973950
O -1.644420 8.163743 9.803282
