108
A
Zn 2.362221 0.620009 4.777624
Zn -1.647331 2.286084 7.102502
O 2.362221 0.620009 6.846766
O -1.647331 2.286084 9.171644
Zn 2.362221 0.620009 9.427380
Zn -1.647331 2.286084 11.752258
O 2.362221 0.620009 11.496522
O -1.647331 2.286084 13.821400
Zn 2.362221 0.620009 14.077136
Zn -1.647331 2.286084 16.402014
O 2.362221 0.620009 16.146278
O -1.647331 2.286084 18.471156
Zn -0.020536 3.526102 9.427380
Zn -4.030087 5.192176 11.752258
O -0.020536 3.526102 11.496522
O -4.030087 5.192176 13.821400
Zn -0.020536 3.526102 14.077136
Zn -4.030087 5.192176 16.402014
O -0.020536 3.526102 16.146278
O -4.030087 5.192176 18.471156
Zn -0.020536 3.526102 18.726892
Zn -4.030087 5.192176 21.051770
O -0.020536 3.526102 20.796034
O -4.030087 5.192176 23.120912
Zn -2.403293 6.432194 14.077136
Zn -6.412844 8.098269 16.402014
O -2.403293 6.432194 16.146278
O -6.412844 8.098269 18.471156
Zn -2.403293 6.432194 18.726892
Zn -6.412844 8.098269 21.051770
O -2.403293 6.432194 20.796034
O -6.412844 8.098269 23.120912
Zn -2.403293 6.432194 23.376648
Zn -6.412844 8.098269 25.701526
O -2.403293 6.432194 25.445790
O -6.412844 8.098269 27.770668
Zn 5.459867 0.620009 9.427380
Zn 1.450316 2.286084 11.752258
O 5.459867 0.620009 11.496522
O 1.450316 2.286084 13.821400
Zn 5.459867 0.620009 14.077136
Zn 1.450316 2.286084 16.402014
O 5.459867 0.620009 16.146278
O 1.450316 2.286084 18.471156
Zn 5.459867 0.620009 18.726892
Zn 1.450316 2.286084 21.051770
O 5.459867 0.620009 20.796034
O 1.450316 2.286084 23.120912
Zn 3.077111 3.526102 14.077136
Zn -0.932441 5.192176 16.402014
O 3.077111 3.526102 16.146278
O -0.932441 5.192176 18.471156
Zn 3.077111 3.526102 18.726892
Zn -0.932441 5.192176 21.051770
O 3.077111 3.526102 20.796034
O -0.932441 5.192176 23.120912
Zn 3.077111 3.526102 23.376648
Zn -0.932441 5.192176 25.701526
O 3.077111 3.526102 25.445790
O -0.932441 5.192176 27.770668
Zn 0.694354 6.432194 18.726892
Zn -3.315197 8.098269 21.051770
O 0.694354 6.432194 20.796034
O -3.315197 8.098269 23.120912
Zn 0.694354 6.432194 23.376648
Zn -3.315197 8.098269 25.701526
O 0.694354 6.432194 25.445790
O -3.315197 8.098269 27.770668
Zn 0.694354 6.432194 28.026404
Zn -3.315197 8.098269 30.351282
O 0.694354 6.432194 30.095546
O -3.315197 8.098269 32.420424
Zn 8.557514 0.620009 14.077136
Zn 4.547963 2.286084 16.402014
O 8.557514 0.620009 16.146278
O 4.547963 2.286084 18.471156
Zn 8.557514 0.620009 18.726892
Zn 4.547963 2.286084 21.051770
O 8.557514 0.620009 20.796034
O 4.547963 2.286084 23.120912
Zn 8.557514 0.620009 23.376648
Zn 4.547963 2.286084 25.701526
O 8.557514 0.620009 25.445790
O 4.547963 2.286084 27.770668
Zn 6.174757 3.526102 18.726892
Zn 2.165206 5.192176 21.051770
O 6.174757 3.526102 20.796034
O 2.165206 5.192176 23.120912
Zn 6.174757 3.526102 23.376648
Zn 2.165206 5.192176 25.701526
O 6.174757 3.526102 25.445790
O 2.165206 5.192176 27.770668
Zn 6.174757 3.526102 28.026404
Zn 2.165206 5.192176 30.351282
O 6.174757 3.526102 30.095546
O 2.165206 5.192176 32.420424
Zn 3.792001 6.432194 23.376648
Zn -0.217551 8.098269 25.701526
O 3.792001 6.432194 25.445790
O -0.217551 8.098269 27.770668
Zn 3.792001 6.432194 28.026404
Zn -0.217551 8.098269 30.351282
O 3.792001 6.432194 30.095546
O -0.217551 8.098269 32.420424
Zn 3.792001 6.432194 32.676160
Zn -0.217551 8.098269 35.001038
O 3.792001 6.432194 34.745302
O -0.217551 8.098269 37.070180
