108
A
Zn 2.414754 0.538108 1.008201
Zn -1.212439 2.318729 3.482314
O 2.414754 0.538108 3.940025
O -1.212439 2.318729 1.465912
Zn 2.414754 0.538108 5.956427
Zn -1.212439 2.318729 8.430540
O 2.414754 0.538108 8.888251
O -1.212439 2.318729 6.414138
Zn 2.414754 0.538108 10.904653
Zn -1.212439 2.318729 13.378766
O 2.414754 0.538108 13.836477
O -1.212439 2.318729 11.362364
Zn 0.438072 3.394946 1.008201
Zn -3.189120 5.175567 3.482314
O 0.438072 3.394946 3.940025
O -3.189120 5.175567 1.465912
Zn 0.438072 3.394946 5.956427
Zn -3.189120 5.175567 8.430540
O 0.438072 3.394946 8.888251
O -3.189120 5.175567 6.414138
Zn 0.438072 3.394946 10.904653
Zn -3.189120 5.175567 13.378766
O 0.438072 3.394946 13.836477
O -3.189120 5.175567 11.362364
Zn -1.538610 6.251783 1.008201
Zn -5.165802 8.032404 3.482314
O -1.538610 6.251783 3.940025
O -5.165802 8.032404 1.465912
Zn -1.538610 6.251783 5.956427
Zn -5.165802 8.032404 8.430540
O -1.538610 6.251783 8.888251
O -5.165802 8.032404 6.414138
Zn -1.538610 6.251783 10.904653
Zn -5.165802 8.032404 13.378766
O -1.538610 6.251783 13.836477
O -5.165802 8.032404 11.362364
Zn 5.593750 0.538108 1.008201
Zn 1.966558 2.318729 3.482314
O 5.593750 0.538108 3.940025
O 1.966558 2.318729 1.465912
Zn 5.593750 0.538108 5.956427
Zn 1.966558 2.318729 8.430540
O 5.593750 0.538108 8.888251
O 1.966558 2.318729 6.414138
Zn 5.593750 0.538108 10.904653
Zn 1.966558 2.318729 13.378766
O 5.593750 0.538108 13.836477
O 1.966558 2.318729 11.362364
Zn 3.617069 3.394946 1.008201
Zn -0.010124 5.175567 3.482314
O 3.617069 3.394946 3.940025
O -0.010124 5.175567 1.465912
Zn 3.617069 3.394946 5.956427
Zn -0.010124 5.175567 8.430540
O 3.617069 3.394946 8.888251
O -0.010124 5.175567 6.414138
Zn 3.617069 3.394946 10.904653
Zn -0.010124 5.175567 13.378766
O 3.617069 3.394946 13.836477
O -0.010124 5.175567 11.362364
Zn 1.640387 6.251783 1.008201
Zn -1.986805 8.032404 3.482314
O 1.640387 6.251783 3.940025
O -1.986805 8.032404 1.465912
Zn 1.640387 6.251783 5.956427
Zn -1.986805 8.032404 8.430540
O 1.640387 6.251783 8.888251
O -1.986805 8.032404 6.414138
Zn 1.640387 6.251783 10.904653
Zn -1.986805 8.032404 13.378766
O 1.640387 6.251783 13.836477
O -1.986805 8.032404 11.362364
Zn 8.772747 0.538108 1.008201
Zn 5.145555 2.318729 3.482314
O 8.772747 0.538108 3.940025
O 5.145555 2.318729 1.465912
Zn 8.772747 0.538108 5.956427
Zn 5.145555 2.318729 8.430540
O 8.772747 0.538108 8.888251
O 5.145555 2.318729 6.414138
Zn 8.772747 0.538108 10.904653
Zn 5.145555 2.318729 13.378766
O 8.772747 0.538108 13.836477
O 5.145555 2.318729 11.362364
Zn 6.796065 3.394946 1.008201
Zn 3.168873 5.175567 3.482314
O 6.796065 3.394946 3.940025
O 3.168873 5.175567 1.465912
Zn 6.796065 3.394946 5.956427
Zn 3.168873 5.175567 8.430540
O 6.796065 3.394946 8.888251
O 3.168873 5.175567 6.414138
Zn 6.796065 3.394946 10.904653
Zn 3.168873 5.175567 13.378766
O 6.796065 3.394946 13.836477
O 3.168873 5.175567 11.362364
Zn 4.819384 6.251783 1.008201
Zn 1.192191 8.032404 3.482314
O 4.819384 6.251783 3.940025
O 1.192191 8.032404 1.465912
Zn 4.819384 6.251783 5.956427
Zn 1.192191 8.032404 8.430540
O 4.819384 6.251783 8.888251
O 1.192191 8.032404 6.414138
Zn 4.819384 6.251783 10.904653
Zn 1.192191 8.032404 13.378766
O 4.819384 6.251783 13.836477
O 1.192191 8.032404 11.362364
