108
A
Zn 2.379009 0.597928 1.028633
Zn -1.534139 2.295030 3.393307
O 2.379009 0.597928 3.700715
O -1.534139 2.295030 1.336041
Zn 2.379009 0.597928 5.757981
Zn -1.534139 2.295030 8.122655
O 2.379009 0.597928 8.430063
O -1.534139 2.295030 6.065389
Zn 2.379009 0.597928 10.487329
Zn -1.534139 2.295030 12.852003
O 2.379009 0.597928 13.159411
O -1.534139 2.295030 10.794737
Zn 0.104539 3.490886 1.028633
Zn -3.808609 5.187988 3.393307
O 0.104539 3.490886 3.700715
O -3.808609 5.187988 1.336041
Zn 0.104539 3.490886 5.757981
Zn -3.808609 5.187988 8.122655
O 0.104539 3.490886 8.430063
O -3.808609 5.187988 6.065389
Zn 0.104539 3.490886 10.487329
Zn -3.808609 5.187988 12.852003
O 0.104539 3.490886 13.159411
O -3.808609 5.187988 10.794737
Zn -2.169931 6.383844 1.028633
Zn -6.083079 8.080946 3.393307
O -2.169931 6.383844 3.700715
O -6.083079 8.080946 1.336041
Zn -2.169931 6.383844 5.757981
Zn -6.083079 8.080946 8.122655
O -2.169931 6.383844 8.430063
O -6.083079 8.080946 6.065389
Zn -2.169931 6.383844 10.487329
Zn -6.083079 8.080946 12.852003
O -2.169931 6.383844 13.159411
O -6.083079 8.080946 10.794737
Zn 5.498349 0.597928 1.028633
Zn 1.585201 2.295030 3.393307
O 5.498349 0.597928 3.700715
O 1.585201 2.295030 1.336041
Zn 5.498349 0.597928 5.757981
Zn 1.585201 2.295030 8.122655
O 5.498349 0.597928 8.430063
O 1.585201 2.295030 6.065389
Zn 5.498349 0.597928 10.487329
Zn 1.585201 2.295030 12.852003
O 5.498349 0.597928 13.159411
O 1.585201 2.295030 10.794737
Zn 3.223879 3.490886 1.028633
Zn -0.689269 5.187988 3.393307
O 3.223879 3.490886 3.700715
O -0.689269 5.187988 1.336041
Zn 3.223879 3.490886 5.757981
Zn -0.689269 5.187988 8.122655
O 3.223879 3.490886 8.430063
O -0.689269 5.187988 6.065389
Zn 3.223879 3.490886 10.487329
Zn -0.689269 5.187988 12.852003
O 3.223879 3.490886 13.159411
O -0.689269 5.187988 10.794737
Zn 0.949409 6.383844 1.028633
Zn -2.963739 8.080946 3.393307
O 0.949409 6.383844 3.700715
O -2.963739 8.080946 1.336041
Zn 0.949409 6.383844 5.757981
Zn -2.963739 8.080946 8.122655
O 0.949409 6.383844 8.430063
O -2.963739 8.080946 6.065389
Zn 0.949409 6.383844 10.487329
Zn -2.963739 8.080946 12.852003
O 0.949409 6.383844 13.159411
O -2.963739 8.080946 10.794737
Zn 8.617689 0.597928 1.028633
Zn 4.704541 2.295030 3.393307
O 8.617689 0.597928 3.700715
O 4.704541 2.295030 1.336041
Zn 8.617689 0.597928 5.757981
Zn 4.704541 2.295030 8.122655
O 8.617689 0.597928 8.430063
O 4.704541 2.295030 6.065389
Zn 8.617689 0.597928 10.487329
Zn 4.704541 2.295030 12.852003
O 8.617689 0.597928 13.159411
O 4.704541 2.295030 10.794737
Zn 6.343219 3.490886 1.028633
Zn 2.430071 5.187988 3.393307
O 6.343219 3.490886 3.700715
O 2.430071 5.187988 1.336041
Zn 6.343219 3.490886 5.757981
Zn 2.430071 5.187988 8.122655
O 6.343219 3.490886 8.430063
O 2.430071 5.187988 6.065389
Zn 6.343219 3.490886 10.487329
Zn 2.430071 5.187988 12.852003
O 6.343219 3.490886 13.159411
O 2.430071 5.187988 10.794737
Zn 4.068749 6.383844 1.028633
Zn 0.155601 8.080946 3.393307
O 4.068749 6.383844 3.700715
O 0.155601 8.080946 1.336041
Zn 4.068749 6.383844 5.757981
Zn 0.155601 8.080946 8.122655
O 4.068749 6.383844 8.430063
O 0.155601 8.080946 6.065389
Zn 4.068749 6.383844 10.487329
Zn 0.155601 8.080946 12.852003
O 4.068749 6.383844 13.159411
O 0.155601 8.080946 10.794737
