108
A
Zn 2.397152 0.570573 1.020092
Zn -1.389807 2.305966 3.434511
O 2.397152 0.570573 3.808746
O -1.389807 2.305966 1.394327
Zn 2.397152 0.570573 5.848930
Zn -1.389807 2.305966 8.263349
O 2.397152 0.570573 8.637584
O -1.389807 2.305966 6.223165
Zn 2.397152 0.570573 10.677768
Zn -1.389807 2.305966 13.092187
O 2.397152 0.570573 13.466422
O -1.389807 2.305966 11.052003
Zn 0.258040 3.447113 1.020092
Zn -3.528918 5.182506 3.434511
O 0.258040 3.447113 3.808746
O -3.528918 5.182506 1.394327
Zn 0.258040 3.447113 5.848930
Zn -3.528918 5.182506 8.263349
O 0.258040 3.447113 8.637584
O -3.528918 5.182506 6.223165
Zn 0.258040 3.447113 10.677768
Zn -3.528918 5.182506 13.092187
O 0.258040 3.447113 13.466422
O -3.528918 5.182506 11.052003
Zn -1.881072 6.323652 1.020092
Zn -5.668030 8.059046 3.434511
O -1.881072 6.323652 3.808746
O -5.668030 8.059046 1.394327
Zn -1.881072 6.323652 5.848930
Zn -5.668030 8.059046 8.263349
O -1.881072 6.323652 8.637584
O -5.668030 8.059046 6.223165
Zn -1.881072 6.323652 10.677768
Zn -5.668030 8.059046 13.092187
O -1.881072 6.323652 13.466422
O -5.668030 8.059046 11.052003
Zn 5.543608 0.570573 1.020092
Zn 1.756650 2.305966 3.434511
O 5.543608 0.570573 3.808746
O 1.756650 2.305966 1.394327
Zn 5.543608 0.570573 5.848930
Zn 1.756650 2.305966 8.263349
O 5.543608 0.570573 8.637584
O 1.756650 2.305966 6.223165
Zn 5.543608 0.570573 10.677768
Zn 1.756650 2.305966 13.092187
O 5.543608 0.570573 13.466422
O 1.756650 2.305966 11.052003
Zn 3.404497 3.447113 1.020092
Zn -0.382462 5.182506 3.434511
O 3.404497 3.447113 3.808746
O -0.382462 5.182506 1.394327
Zn 3.404497 3.447113 5.848930
Zn -0.382462 5.182506 8.263349
O 3.404497 3.447113 8.637584
O -0.382462 5.182506 6.223165
Zn 3.404497 3.447113 10.677768
Zn -0.382462 5.182506 13.092187
O 3.404497 3.447113 13.466422
O -0.382462 5.182506 11.052003
Zn 1.265385 6.323652 1.020092
Zn -2.521573 8.059046 3.434511
O 1.265385 6.323652 3.808746
O -2.521573 8.059046 1.394327
Zn 1.265385 6.323652 5.848930
Zn -2.521573 8.059046 8.263349
O 1.265385 6.323652 8.637584
O -2.521573 8.059046 6.223165
Zn 1.265385 6.323652 10.677768
Zn -2.521573 8.059046 13.092187
O 1.265385 6.323652 13.466422
O -2.521573 8.059046 11.052003
Zn 8.690065 0.570573 1.020092
Zn 4.903107 2.305966 3.434511
O 8.690065 0.570573 3.808746
O 4.903107 2.305966 1.394327
Zn 8.690065 0.570573 5.848930
Zn 4.903107 2.305966 8.263349
O 8.690065 0.570573 8.637584
O 4.903107 2.305966 6.223165
Zn 8.690065 0.570573 10.677768
Zn 4.903107 2.305966 13.092187
O 8.690065 0.570573 13.466422
O 4.903107 2.305966 11.052003
Zn 6.550953 3.447113 1.020092
Zn 2.763995 5.182506 3.434511
O 6.550953 3.447113 3.808746
O 2.763995 5.182506 1.394327
Zn 6.550953 3.447113 5.848930
Zn 2.763995 5.182506 8.263349
O 6.550953 3.447113 8.637584
O 2.763995 5.182506 6.223165
Zn 6.550953 3.447113 10.677768
Zn 2.763995 5.182506 13.092187
O 6.550953 3.447113 13.466422
O 2.763995 5.182506 11.052003
Zn 4.411842 6.323652 1.020092
Zn 0.624883 8.059046 3.434511
O 4.411842 6.323652 3.808746
O 0.624883 8.059046 1.394327
Zn 4.411842 6.323652 5.848930
Zn 0.624883 8.059046 8.263349
O 4.411842 6.323652 8.637584
O 0.624883 8.059046 6.223165
Zn 4.411842 6.323652 10.677768
Zn 0.624883 8.059046 13.092187
O 4.411842 6.323652 13.466422
O 0.624883 8.059046 11.052003
