108
A
Zn 2.251429 0.730161 1.052118
Zn -2.170191 2.239964 3.182991
O 2.251429 0.730161 3.209627
O -2.170191 2.239964 1.078754
Zn 2.251429 0.730161 5.313863
Zn -2.170191 2.239964 7.444736
O 2.251429 0.730161 7.471372
O -2.170191 2.239964 5.340499
Zn 2.251429 0.730161 9.575608
Zn -2.170191 2.239964 11.706481
O 2.251429 0.730161 11.733117
O -2.170191 2.239964 9.602244
Zn -0.659226 3.700285 1.052118
Zn -5.080846 5.210089 3.182991
O -0.659226 3.700285 3.209627
O -5.080846 5.210089 1.078754
Zn -0.659226 3.700285 5.313863
Zn -5.080846 5.210089 7.444736
O -0.659226 3.700285 7.471372
O -5.080846 5.210089 5.340499
Zn -0.659226 3.700285 9.575608
Zn -5.080846 5.210089 11.706481
O -0.659226 3.700285 11.733117
O -5.080846 5.210089 9.602244
Zn -3.569880 6.670410 1.052118
Zn -7.991500 8.180213 3.182991
O -3.569880 6.670410 3.209627
O -7.991500 8.180213 1.078754
Zn -3.569880 6.670410 5.313863
Zn -7.991500 8.180213 7.444736
O -3.569880 6.670410 7.471372
O -7.991500 8.180213 5.340499
Zn -3.569880 6.670410 9.575608
Zn -7.991500 8.180213 11.706481
O -3.569880 6.670410 11.733117
O -7.991500 8.180213 9.602244
Zn 5.243321 0.730161 1.052118
Zn 0.821701 2.239964 3.182991
O 5.243321 0.730161 3.209627
O 0.821701 2.239964 1.078754
Zn 5.243321 0.730161 5.313863
Zn 0.821701 2.239964 7.444736
O 5.243321 0.730161 7.471372
O 0.821701 2.239964 5.340499
Zn 5.243321 0.730161 9.575608
Zn 0.821701 2.239964 11.706481
O 5.243321 0.730161 11.733117
O 0.821701 2.239964 9.602244
Zn 2.332666 3.700285 1.052118
Zn -2.088954 5.210089 3.182991
O 2.332666 3.700285 3.209627
O -2.088954 5.210089 1.078754
Zn 2.332666 3.700285 5.313863
Zn -2.088954 5.210089 7.444736
O 2.332666 3.700285 7.471372
O -2.088954 5.210089 5.340499
Zn 2.332666 3.700285 9.575608
Zn -2.088954 5.210089 11.706481
O 2.332666 3.700285 11.733117
O -2.088954 5.210089 9.602244
Zn -0.577988 6.670410 1.052118
Zn -4.999608 8.180213 3.182991
O -0.577988 6.670410 3.209627
O -4.999608 8.180213 1.078754
Zn -0.577988 6.670410 5.313863
Zn -4.999608 8.180213 7.444736
O -0.577988 6.670410 7.471372
O -4.999608 8.180213 5.340499
Zn -0.577988 6.670410 9.575608
Zn -4.999608 8.180213 11.706481
O -0.577988 6.670410 11.733117
O -4.999608 8.180213 9.602244
Zn 8.235213 0.730161 1.052118
Zn 3.813593 2.239964 3.182991
O 8.235213 0.730161 3.209627
O 3.813593 2.239964 1.078754
Zn 8.235213 0.730161 5.313863
Zn 3.813593 2.239964 7.444736
O 8.235213 0.730161 7.471372
O 3.813593 2.239964 5.340499
Zn 8.235213 0.730161 9.575608
Zn 3.813593 2.239964 11.706481
O 8.235213 0.730161 11.733117
O 3.813593 2.239964 9.602244
Zn 5.324558 3.700285 1.052118
Zn 0.902938 5.210089 3.182991
O 5.324558 3.700285 3.209627
O 0.902938 5.210089 1.078754
Zn 5.324558 3.700285 5.313863
Zn 0.902938 5.210089 7.444736
O 5.324558 3.700285 7.471372
O 0.902938 5.210089 5.340499
Zn 5.324558 3.700285 9.575608
Zn 0.902938 5.210089 11.706481
O 5.324558 3.700285 11.733117
O 0.902938 5.210089 9.602244
Zn 2.413904 6.670410 1.052118
Zn -2.007716 8.180213 3.182991
O 2.413904 6.670410 3.209627
O -2.007716 8.180213 1.078754
Zn 2.413904 6.670410 5.313863
Zn -2.007716 8.180213 7.444736
O 2.413904 6.670410 7.471372
O -2.007716 8.180213 5.340499
Zn 2.413904 6.670410 9.575608
Zn -2.007716 8.180213 11.706481
O 2.413904 6.670410 11.733117
O -2.007716 8.180213 9.602244
