108
A
Zn 2.424970 0.514018 0.998108
Zn -1.076428 2.328043 3.516991
O 2.424970 0.514018 4.039659
O -1.076428 2.328043 1.520776
Zn 2.424970 0.514018 6.035875
Zn -1.076428 2.328043 8.554758
O 2.424970 0.514018 9.077426
O -1.076428 2.328043 6.558543
Zn 2.424970 0.514018 11.073642
Zn -1.076428 2.328043 13.592525
O 2.424970 0.514018 14.115193
O -1.076428 2.328043 11.596310
Zn 0.570111 3.356079 0.998108
Zn -2.931287 5.170104 3.516991
O 0.570111 3.356079 4.039659
O -2.931287 5.170104 1.520776
Zn 0.570111 3.356079 6.035875
Zn -2.931287 5.170104 8.554758
O 0.570111 3.356079 9.077426
O -2.931287 5.170104 6.558543
Zn 0.570111 3.356079 11.073642
Zn -2.931287 5.170104 13.592525
O 0.570111 3.356079 14.115193
O -2.931287 5.170104 11.596310
Zn -1.284748 6.198140 0.998108
Zn -4.786146 8.012165 3.516991
O -1.284748 6.198140 4.039659
O -4.786146 8.012165 1.520776
Zn -1.284748 6.198140 6.035875
Zn -4.786146 8.012165 8.554758
O -1.284748 6.198140 9.077426
O -4.786146 8.012165 6.558543
Zn -1.284748 6.198140 11.073642
Zn -4.786146 8.012165 13.592525
O -1.284748 6.198140 14.115193
O -4.786146 8.012165 11.596310
Zn 5.628372 0.514018 0.998108
Zn 2.126974 2.328043 3.516991
O 5.628372 0.514018 4.039659
O 2.126974 2.328043 1.520776
Zn 5.628372 0.514018 6.035875
Zn 2.126974 2.328043 8.554758
O 5.628372 0.514018 9.077426
O 2.126974 2.328043 6.558543
Zn 5.628372 0.514018 11.073642
Zn 2.126974 2.328043 13.592525
O 5.628372 0.514018 14.115193
O 2.126974 2.328043 11.596310
Zn 3.773513 3.356079 0.998108
Zn 0.272115 5.170104 3.516991
O 3.773513 3.356079 4.039659
O 0.272115 5.170104 1.520776
Zn 3.773513 3.356079 6.035875
Zn 0.272115 5.170104 8.554758
O 3.773513 3.356079 9.077426
O 0.272115 5.170104 6.558543
Zn 3.773513 3.356079 11.073642
Zn 0.272115 5.170104 13.592525
O 3.773513 3.356079 14.115193
O 0.272115 5.170104 11.596310
Zn 1.918653 6.198140 0.998108
Zn -1.582744 8.012165 3.516991
O 1.918653 6.198140 4.039659
O -1.582744 8.012165 1.520776
Zn 1.918653 6.198140 6.035875
Zn -1.582744 8.012165 8.554758
O 1.918653 6.198140 9.077426
O -1.582744 8.012165 6.558543
Zn 1.918653 6.198140 11.073642
Zn -1.582744 8.012165 13.592525
O 1.918653 6.198140 14.115193
O -1.582744 8.012165 11.596310
Zn 8.831774 0.514018 0.998108
Zn 5.330376 2.328043 3.516991
O 8.831774 0.514018 4.039659
O 5.330376 2.328043 1.520776
Zn 8.831774 0.514018 6.035875
Zn 5.330376 2.328043 8.554758
O 8.831774 0.514018 9.077426
O 5.330376 2.328043 6.558543
Zn 8.831774 0.514018 11.073642
Zn 5.330376 2.328043 13.592525
O 8.831774 0.514018 14.115193
O 5.330376 2.328043 11.596310
Zn 6.976914 3.356079 0.998108
Zn 3.475517 5.170104 3.516991
O 6.976914 3.356079 4.039659
O 3.475517 5.170104 1.520776
Zn 6.976914 3.356079 6.035875
Zn 3.475517 5.170104 8.554758
O 6.976914 3.356079 9.077426
O 3.475517 5.170104 6.558543
Zn 6.976914 3.356079 11.073642
Zn 3.475517 5.170104 13.592525
O 6.976914 3.356079 14.115193
O 3.475517 5.170104 11.596310
Zn 5.122055 6.198140 0.998108
Zn 1.620657 8.012165 3.516991
O 5.122055 6.198140 4.039659
O 1.620657 8.012165 1.520776
Zn 5.122055 6.198140 6.035875
Zn 1.620657 8.012165 8.554758
O 5.122055 6.198140 9.077426
O 1.620657 8.012165 6.558543
Zn 5.122055 6.198140 11.073642
Zn 1.620657 8.012165 13.592525
O 5.122055 6.198140 14.115193
O 1.620657 8.012165 11.596310
