108
A
Zn 2.335836 0.650656 1.041435
Zn -1.799668 2.273497 3.311594
O 2.335836 0.650656 3.498882
O -1.799668 2.273497 1.228723
Zn 2.335836 0.650656 5.581752
Zn -1.799668 2.273497 7.851911
O 2.335836 0.650656 8.039199
O -1.799668 2.273497 5.769040
Zn 2.335836 0.650656 10.122069
Zn -1.799668 2.273497 12.392228
O 2.335836 0.650656 12.579516
O -1.799668 2.273497 10.309357
Zn -0.195815 3.574809 1.041435
Zn -4.331319 5.197650 3.311594
O -0.195815 3.574809 3.498882
O -4.331319 5.197650 1.228723
Zn -0.195815 3.574809 5.581752
Zn -4.331319 5.197650 7.851911
O -0.195815 3.574809 8.039199
O -4.331319 5.197650 5.769040
Zn -0.195815 3.574809 10.122069
Zn -4.331319 5.197650 12.392228
O -0.195815 3.574809 12.579516
O -4.331319 5.197650 10.309357
Zn -2.727466 6.498962 1.041435
Zn -6.862971 8.121803 3.311594
O -2.727466 6.498962 3.498882
O -6.862971 8.121803 1.228723
Zn -2.727466 6.498962 5.581752
Zn -6.862971 8.121803 7.851911
O -2.727466 6.498962 8.039199
O -6.862971 8.121803 5.769040
Zn -2.727466 6.498962 10.122069
Zn -6.862971 8.121803 12.392228
O -2.727466 6.498962 12.579516
O -6.862971 8.121803 10.309357
Zn 5.403654 0.650656 1.041435
Zn 1.268150 2.273497 3.311594
O 5.403654 0.650656 3.498882
O 1.268150 2.273497 1.228723
Zn 5.403654 0.650656 5.581752
Zn 1.268150 2.273497 7.851911
O 5.403654 0.650656 8.039199
O 1.268150 2.273497 5.769040
Zn 5.403654 0.650656 10.122069
Zn 1.268150 2.273497 12.392228
O 5.403654 0.650656 12.579516
O 1.268150 2.273497 10.309357
Zn 2.872003 3.574809 1.041435
Zn -1.263501 5.197650 3.311594
O 2.872003 3.574809 3.498882
O -1.263501 5.197650 1.228723
Zn 2.872003 3.574809 5.581752
Zn -1.263501 5.197650 7.851911
O 2.872003 3.574809 8.039199
O -1.263501 5.197650 5.769040
Zn 2.872003 3.574809 10.122069
Zn -1.263501 5.197650 12.392228
O 2.872003 3.574809 12.579516
O -1.263501 5.197650 10.309357
Zn 0.340352 6.498962 1.041435
Zn -3.795152 8.121803 3.311594
O 0.340352 6.498962 3.498882
O -3.795152 8.121803 1.228723
Zn 0.340352 6.498962 5.581752
Zn -3.795152 8.121803 7.851911
O 0.340352 6.498962 8.039199
O -3.795152 8.121803 5.769040
Zn 0.340352 6.498962 10.122069
Zn -3.795152 8.121803 12.392228
O 0.340352 6.498962 12.579516
O -3.795152 8.121803 10.309357
Zn 8.471473 0.650656 1.041435
Zn 4.335969 2.273497 3.311594
O 8.471473 0.650656 3.498882
O 4.335969 2.273497 1.228723
Zn 8.471473 0.650656 5.581752
Zn 4.335969 2.273497 7.851911
O 8.471473 0.650656 8.039199
O 4.335969 2.273497 5.769040
Zn 8.471473 0.650656 10.122069
Zn 4.335969 2.273497 12.392228
O 8.471473 0.650656 12.579516
O 4.335969 2.273497 10.309357
Zn 5.939822 3.574809 1.041435
Zn 1.804318 5.197650 3.311594
O 5.939822 3.574809 3.498882
O 1.804318 5.197650 1.228723
Zn 5.939822 3.574809 5.581752
Zn 1.804318 5.197650 7.851911
O 5.939822 3.574809 8.039199
O 1.804318 5.197650 5.769040
Zn 5.939822 3.574809 10.122069
Zn 1.804318 5.197650 12.392228
O 5.939822 3.574809 12.579516
O 1.804318 5.197650 10.309357
Zn 3.408171 6.498962 1.041435
Zn -0.727333 8.121803 3.311594
O 3.408171 6.498962 3.498882
O -0.727333 8.121803 1.228723
Zn 3.408171 6.498962 5.581752
Zn -0.727333 8.121803 7.851911
O 3.408171 6.498962 8.039199
O -0.727333 8.121803 5.769040
Zn 3.408171 6.498962 10.122069
Zn -0.727333 8.121803 12.392228
O 3.408171 6.498962 12.579516
O -0.727333 8.121803 10.309357
