108
A
Zn 2.431904 0.492790 0.988290
Zn -0.953381 2.336136 3.546969
O 2.431904 0.492790 4.129069
O -0.953381 2.336136 1.570390
Zn 2.431904 0.492790 6.105649
Zn -0.953381 2.336136 8.664328
O 2.431904 0.492790 9.246428
O -0.953381 2.336136 6.687749
Zn 2.431904 0.492790 11.223008
Zn -0.953381 2.336136 13.781687
O 2.431904 0.492790 14.363787
O -0.953381 2.336136 11.805108
Zn 0.685331 3.321717 0.988290
Zn -2.699954 5.165062 3.546969
O 0.685331 3.321717 4.129069
O -2.699954 5.165062 1.570390
Zn 0.685331 3.321717 6.105649
Zn -2.699954 5.165062 8.664328
O 0.685331 3.321717 9.246428
O -2.699954 5.165062 6.687749
Zn 0.685331 3.321717 11.223008
Zn -2.699954 5.165062 13.781687
O 0.685331 3.321717 14.363787
O -2.699954 5.165062 11.805108
Zn -1.061241 6.150643 0.988290
Zn -4.446526 7.993988 3.546969
O -1.061241 6.150643 4.129069
O -4.446526 7.993988 1.570390
Zn -1.061241 6.150643 6.105649
Zn -4.446526 7.993988 8.664328
O -1.061241 6.150643 9.246428
O -4.446526 7.993988 6.687749
Zn -1.061241 6.150643 11.223008
Zn -4.446526 7.993988 13.781687
O -1.061241 6.150643 14.363787
O -4.446526 7.993988 11.805108
Zn 5.656999 0.492790 0.988290
Zn 2.271714 2.336136 3.546969
O 5.656999 0.492790 4.129069
O 2.271714 2.336136 1.570390
Zn 5.656999 0.492790 6.105649
Zn 2.271714 2.336136 8.664328
O 5.656999 0.492790 9.246428
O 2.271714 2.336136 6.687749
Zn 5.656999 0.492790 11.223008
Zn 2.271714 2.336136 13.781687
O 5.656999 0.492790 14.363787
O 2.271714 2.336136 11.805108
Zn 3.910426 3.321717 0.988290
Zn 0.525141 5.165062 3.546969
O 3.910426 3.321717 4.129069
O 0.525141 5.165062 1.570390
Zn 3.910426 3.321717 6.105649
Zn 0.525141 5.165062 8.664328
O 3.910426 3.321717 9.246428
O 0.525141 5.165062 6.687749
Zn 3.910426 3.321717 11.223008
Zn 0.525141 5.165062 13.781687
O 3.910426 3.321717 14.363787
O 0.525141 5.165062 11.805108
Zn 2.163854 6.150643 0.988290
Zn -1.221431 7.993988 3.546969
O 2.163854 6.150643 4.129069
O -1.221431 7.993988 1.570390
Zn 2.163854 6.150643 6.105649
Zn -1.221431 7.993988 8.664328
O 2.163854 6.150643 9.246428
O -1.221431 7.993988 6.687749
Zn 2.163854 6.150643 11.223008
Zn -1.221431 7.993988 13.781687
O 2.163854 6.150643 14.363787
O -1.221431 7.993988 11.805108
Zn 8.882094 0.492790 0.988290
Zn 5.496809 2.336136 3.546969
O 8.882094 0.492790 4.129069
O 5.496809 2.336136 1.570390
Zn 8.882094 0.492790 6.105649
Zn 5.496809 2.336136 8.664328
O 8.882094 0.492790 9.246428
O 5.496809 2.336136 6.687749
Zn 8.882094 0.492790 11.223008
Zn 5.496809 2.336136 13.781687
O 8.882094 0.492790 14.363787
O 5.496809 2.336136 11.805108
Zn 7.135521 3.321717 0.988290
Zn 3.750236 5.165062 3.546969
O 7.135521 3.321717 4.129069
O 3.750236 5.165062 1.570390
Zn 7.135521 3.321717 6.105649
Zn 3.750236 5.165062 8.664328
O 7.135521 3.321717 9.246428
O 3.750236 5.165062 6.687749
Zn 7.135521 3.321717 11.223008
Zn 3.750236 5.165062 13.781687
O 7.135521 3.321717 14.363787
O 3.750236 5.165062 11.805108
Zn 5.388949 6.150643 0.988290
Zn 2.003664 7.993988 3.546969
O 5.388949 6.150643 4.129069
O 2.003664 7.993988 1.570390
Zn 5.388949 6.150643 6.105649
Zn 2.003664 7.993988 8.664328
O 5.388949 6.150643 9.246428
O 2.003664 7.993988 6.687749
Zn 5.388949 6.150643 11.223008
Zn 2.003664 7.993988 13.781687
O 5.388949 6.150643 14.363787
O 2.003664 7.993988 11.805108
