108
A
Zn 2.426893 0.508695 0.995728
Zn -1.045855 2.330083 3.524560
O 2.426893 0.508695 4.061937
O -1.045855 2.330083 1.533105
Zn 2.426893 0.508695 6.053393
Zn -1.045855 2.330083 8.582225
O 2.426893 0.508695 9.119602
O -1.045855 2.330083 6.590770
Zn 2.426893 0.508695 11.111058
Zn -1.045855 2.330083 13.639890
O 2.426893 0.508695 14.177267
O -1.045855 2.330083 11.648435
Zn 0.599105 3.347472 0.995728
Zn -2.873643 5.168860 3.524560
O 0.599105 3.347472 4.061937
O -2.873643 5.168860 1.533105
Zn 0.599105 3.347472 6.053393
Zn -2.873643 5.168860 8.582225
O 0.599105 3.347472 9.119602
O -2.873643 5.168860 6.590770
Zn 0.599105 3.347472 11.111058
Zn -2.873643 5.168860 13.639890
O 0.599105 3.347472 14.177267
O -2.873643 5.168860 11.648435
Zn -1.228682 6.186249 0.995728
Zn -4.701431 8.007637 3.524560
O -1.228682 6.186249 4.061937
O -4.701431 8.007637 1.533105
Zn -1.228682 6.186249 6.053393
Zn -4.701431 8.007637 8.582225
O -1.228682 6.186249 9.119602
O -4.701431 8.007637 6.590770
Zn -1.228682 6.186249 11.111058
Zn -4.701431 8.007637 13.639890
O -1.228682 6.186249 14.177267
O -4.701431 8.007637 11.648435
Zn 5.635718 0.508695 0.995728
Zn 2.162970 2.330083 3.524560
O 5.635718 0.508695 4.061937
O 2.162970 2.330083 1.533105
Zn 5.635718 0.508695 6.053393
Zn 2.162970 2.330083 8.582225
O 5.635718 0.508695 9.119602
O 2.162970 2.330083 6.590770
Zn 5.635718 0.508695 11.111058
Zn 2.162970 2.330083 13.639890
O 5.635718 0.508695 14.177267
O 2.162970 2.330083 11.648435
Zn 3.807930 3.347472 0.995728
Zn 0.335182 5.168860 3.524560
O 3.807930 3.347472 4.061937
O 0.335182 5.168860 1.533105
Zn 3.807930 3.347472 6.053393
Zn 0.335182 5.168860 8.582225
O 3.807930 3.347472 9.119602
O 0.335182 5.168860 6.590770
Zn 3.807930 3.347472 11.111058
Zn 0.335182 5.168860 13.639890
O 3.807930 3.347472 14.177267
O 0.335182 5.168860 11.648435
Zn 1.980143 6.186249 0.995728
Zn -1.492606 8.007637 3.524560
O 1.980143 6.186249 4.061937
O -1.492606 8.007637 1.533105
Zn 1.980143 6.186249 6.053393
Zn -1.492606 8.007637 8.582225
O 1.980143 6.186249 9.119602
O -1.492606 8.007637 6.590770
Zn 1.980143 6.186249 11.111058
Zn -1.492606 8.007637 13.639890
O 1.980143 6.186249 14.177267
O -1.492606 8.007637 11.648435
Zn 8.844543 0.508695 0.995728
Zn 5.371795 2.330083 3.524560
O 8.844543 0.508695 4.061937
O 5.371795 2.330083 1.533105
Zn 8.844543 0.508695 6.053393
Zn 5.371795 2.330083 8.582225
O 8.844543 0.508695 9.119602
O 5.371795 2.330083 6.590770
Zn 8.844543 0.508695 11.111058
Zn 5.371795 2.330083 13.639890
O 8.844543 0.508695 14.177267
O 5.371795 2.330083 11.648435
Zn 7.016756 3.347472 0.995728
Zn 3.544007 5.168860 3.524560
O 7.016756 3.347472 4.061937
O 3.544007 5.168860 1.533105
Zn 7.016756 3.347472 6.053393
Zn 3.544007 5.168860 8.582225
O 7.016756 3.347472 9.119602
O 3.544007 5.168860 6.590770
Zn 7.016756 3.347472 11.111058
Zn 3.544007 5.168860 13.639890
O 7.016756 3.347472 14.177267
O 3.544007 5.168860 11.648435
Zn 5.188968 6.186249 0.995728
Zn 1.716220 8.007637 3.524560
O 5.188968 6.186249 4.061937
O 1.716220 8.007637 1.533105
Zn 5.188968 6.186249 6.053393
Zn 1.716220 8.007637 8.582225
O 5.188968 6.186249 9.119602
O 1.716220 8.007637 6.590770
Zn 5.188968 6.186249 11.111058
Zn 1.716220 8.007637 13.639890
O 5.188968 6.186249 14.177267
O 1.716220 8.007637 11.648435
