108
A
Zn 2.327977 0.659072 4.595041
Zn -1.840552 2.270007 6.850276
O 2.327977 0.659072 6.681134
O -1.840552 2.270007 8.936369
Zn 2.327977 0.659072 9.105511
Zn -1.840552 2.270007 11.360746
O 2.327977 0.659072 11.191604
O -1.840552 2.270007 13.446839
Zn 2.327977 0.659072 13.615981
Zn -1.840552 2.270007 15.871216
O 2.327977 0.659072 15.702074
O -1.840552 2.270007 17.957309
Zn -0.244282 3.588150 9.105511
Zn -4.412810 5.199085 11.360746
O -0.244282 3.588150 11.191604
O -4.412810 5.199085 13.446839
Zn -0.244282 3.588150 13.615981
Zn -4.412810 5.199085 15.871216
O -0.244282 3.588150 15.702074
O -4.412810 5.199085 17.957309
Zn -0.244282 3.588150 18.126451
Zn -4.412810 5.199085 20.381686
O -0.244282 3.588150 20.212544
O -4.412810 5.199085 22.467779
Zn -2.816541 6.517229 13.615981
Zn -6.985069 8.128164 15.871216
O -2.816541 6.517229 15.702074
O -6.985069 8.128164 17.957309
Zn -2.816541 6.517229 18.126451
Zn -6.985069 8.128164 20.381686
O -2.816541 6.517229 20.212544
O -6.985069 8.128164 22.467779
Zn -2.816541 6.517229 22.636921
Zn -6.985069 8.128164 24.892156
O -2.816541 6.517229 24.723014
O -6.985069 8.128164 26.978249
Zn 5.387660 0.659072 9.105511
Zn 1.219132 2.270007 11.360746
O 5.387660 0.659072 11.191604
O 1.219132 2.270007 13.446839
Zn 5.387660 0.659072 13.615981
Zn 1.219132 2.270007 15.871216
O 5.387660 0.659072 15.702074
O 1.219132 2.270007 17.957309
Zn 5.387660 0.659072 18.126451
Zn 1.219132 2.270007 20.381686
O 5.387660 0.659072 20.212544
O 1.219132 2.270007 22.467779
Zn 2.815402 3.588150 13.615981
Zn -1.353127 5.199085 15.871216
O 2.815402 3.588150 15.702074
O -1.353127 5.199085 17.957309
Zn 2.815402 3.588150 18.126451
Zn -1.353127 5.199085 20.381686
O 2.815402 3.588150 20.212544
O -1.353127 5.199085 22.467779
Zn 2.815402 3.588150 22.636921
Zn -1.353127 5.199085 24.892156
O 2.815402 3.588150 24.723014
O -1.353127 5.199085 26.978249
Zn 0.243143 6.517229 18.126451
Zn -3.925385 8.128164 20.381686
O 0.243143 6.517229 20.212544
O -3.925385 8.128164 22.467779
Zn 0.243143 6.517229 22.636921
Zn -3.925385 8.128164 24.892156
O 0.243143 6.517229 24.723014
O -3.925385 8.128164 26.978249
Zn 0.243143 6.517229 27.147391
Zn -3.925385 8.128164 29.402626
O 0.243143 6.517229 29.233484
O -3.925385 8.128164 31.488719
Zn 8.447344 0.659072 13.615981
Zn 4.278816 2.270007 15.871216
O 8.447344 0.659072 15.702074
O 4.278816 2.270007 17.957309
Zn 8.447344 0.659072 18.126451
Zn 4.278816 2.270007 20.381686
O 8.447344 0.659072 20.212544
O 4.278816 2.270007 22.467779
Zn 8.447344 0.659072 22.636921
Zn 4.278816 2.270007 24.892156
O 8.447344 0.659072 24.723014
O 4.278816 2.270007 26.978249
Zn 5.875085 3.588150 18.126451
Zn 1.706557 5.199085 20.381686
O 5.875085 3.588150 20.212544
O 1.706557 5.199085 22.467779
Zn 5.875085 3.588150 22.636921
Zn 1.706557 5.199085 24.892156
O 5.875085 3.588150 24.723014
O 1.706557 5.199085 26.978249
Zn 5.875085 3.588150 27.147391
Zn 1.706557 5.199085 29.402626
O 5.875085 3.588150 29.233484
O 1.706557 5.199085 31.488719
Zn 3.302827 6.517229 22.636921
Zn -0.865702 8.128164 24.892156
O 3.302827 6.517229 24.723014
O -0.865702 8.128164 26.978249
Zn 3.302827 6.517229 27.147391
Zn -0.865702 8.128164 29.402626
O 3.302827 6.517229 29.233484
O -0.865702 8.128164 31.488719
Zn 3.302827 6.517229 31.657861
Zn -0.865702 8.128164 33.913096
O 3.302827 6.517229 33.743954
O -0.865702 8.128164 35.999189
