108
A
Zn 2.247956 0.733040 4.262425
Zn -2.182966 2.238727 6.388323
O 2.247956 0.733040 6.367065
O -2.182966 2.238727 8.492963
Zn 2.247956 0.733040 8.514221
Zn -2.182966 2.238727 10.640119
O 2.247956 0.733040 10.618861
O -2.182966 2.238727 12.744759
Zn 2.247956 0.733040 12.766017
Zn -2.182966 2.238727 14.891915
O 2.247956 0.733040 14.870657
O -2.182966 2.238727 16.996555
Zn -0.676234 3.704806 8.514221
Zn -5.107157 5.210493 10.640119
O -0.676234 3.704806 10.618861
O -5.107157 5.210493 12.744759
Zn -0.676234 3.704806 12.766017
Zn -5.107157 5.210493 14.891915
O -0.676234 3.704806 14.870657
O -5.107157 5.210493 16.996555
Zn -0.676234 3.704806 17.017813
Zn -5.107157 5.210493 19.143711
O -0.676234 3.704806 19.122453
O -5.107157 5.210493 21.248351
Zn -3.600425 6.676572 12.766017
Zn -8.031347 8.182260 14.891915
O -3.600425 6.676572 14.870657
O -8.031347 8.182260 16.996555
Zn -3.600425 6.676572 17.017813
Zn -8.031347 8.182260 19.143711
O -3.600425 6.676572 19.122453
O -8.031347 8.182260 21.248351
Zn -3.600425 6.676572 21.269609
Zn -8.031347 8.182260 23.395507
O -3.600425 6.676572 23.374249
O -8.031347 8.182260 25.500147
Zn 5.237137 0.733040 8.514221
Zn 0.806214 2.238727 10.640119
O 5.237137 0.733040 10.618861
O 0.806214 2.238727 12.744759
Zn 5.237137 0.733040 12.766017
Zn 0.806214 2.238727 14.891915
O 5.237137 0.733040 14.870657
O 0.806214 2.238727 16.996555
Zn 5.237137 0.733040 17.017813
Zn 0.806214 2.238727 19.143711
O 5.237137 0.733040 19.122453
O 0.806214 2.238727 21.248351
Zn 2.312946 3.704806 12.766017
Zn -2.117976 5.210493 14.891915
O 2.312946 3.704806 14.870657
O -2.117976 5.210493 16.996555
Zn 2.312946 3.704806 17.017813
Zn -2.117976 5.210493 19.143711
O 2.312946 3.704806 19.122453
O -2.117976 5.210493 21.248351
Zn 2.312946 3.704806 21.269609
Zn -2.117976 5.210493 23.395507
O 2.312946 3.704806 23.374249
O -2.117976 5.210493 25.500147
Zn -0.611244 6.676572 17.017813
Zn -5.042167 8.182260 19.143711
O -0.611244 6.676572 19.122453
O -5.042167 8.182260 21.248351
Zn -0.611244 6.676572 21.269609
Zn -5.042167 8.182260 23.395507
O -0.611244 6.676572 23.374249
O -5.042167 8.182260 25.500147
Zn -0.611244 6.676572 25.521405
Zn -5.042167 8.182260 27.647303
O -0.611244 6.676572 27.626045
O -5.042167 8.182260 29.751943
Zn 8.226317 0.733040 12.766017
Zn 3.795395 2.238727 14.891915
O 8.226317 0.733040 14.870657
O 3.795395 2.238727 16.996555
Zn 8.226317 0.733040 17.017813
Zn 3.795395 2.238727 19.143711
O 8.226317 0.733040 19.122453
O 3.795395 2.238727 21.248351
Zn 8.226317 0.733040 21.269609
Zn 3.795395 2.238727 23.395507
O 8.226317 0.733040 23.374249
O 3.795395 2.238727 25.500147
Zn 5.302127 3.704806 17.017813
Zn 0.871204 5.210493 19.143711
O 5.302127 3.704806 19.122453
O 0.871204 5.210493 21.248351
Zn 5.302127 3.704806 21.269609
Zn 0.871204 5.210493 23.395507
O 5.302127 3.704806 23.374249
O 0.871204 5.210493 25.500147
Zn 5.302127 3.704806 25.521405
Zn 0.871204 5.210493 27.647303
O 5.302127 3.704806 27.626045
O 0.871204 5.210493 29.751943
Zn 2.377936 6.676572 21.269609
Zn -2.052986 8.182260 23.395507
O 2.377936 6.676572 23.374249
O -2.052986 8.182260 25.500147
Zn 2.377936 6.676572 25.521405
Zn -2.052986 8.182260 27.647303
O 2.377936 6.676572 27.626045
O -2.052986 8.182260 29.751943
Zn 2.377936 6.676572 29.773201
Zn -2.052986 8.182260 31.899099
O 2.377936 6.676572 31.877841
O -2.052986 8.182260 34.003739
