108
A
Zn 2.302694 0.684467 4.478954
Zn -1.961496 2.259388 6.689418
O 2.302694 0.684467 6.573369
O -1.961496 2.259388 8.783833
Zn 2.302694 0.684467 8.899883
Zn -1.961496 2.259388 11.110347
O 2.302694 0.684467 10.994298
O -1.961496 2.259388 13.204762
Zn 2.302694 0.684467 13.320812
Zn -1.961496 2.259388 15.531276
O 2.302694 0.684467 15.415227
O -1.961496 2.259388 17.625691
Zn -0.391387 3.628322 8.899883
Zn -4.655577 5.203243 11.110347
O -0.391387 3.628322 10.994298
O -4.655577 5.203243 13.204762
Zn -0.391387 3.628322 13.320812
Zn -4.655577 5.203243 15.531276
O -0.391387 3.628322 15.415227
O -4.655577 5.203243 17.625691
Zn -0.391387 3.628322 17.741741
Zn -4.655577 5.203243 19.952205
O -0.391387 3.628322 19.836156
O -4.655577 5.203243 22.046620
Zn -3.085469 6.572177 13.320812
Zn -7.349659 8.147098 15.531276
O -3.085469 6.572177 15.415227
O -7.349659 8.147098 17.625691
Zn -3.085469 6.572177 17.741741
Zn -7.349659 8.147098 19.952205
O -3.085469 6.572177 19.836156
O -7.349659 8.147098 22.046620
Zn -3.085469 6.572177 22.162670
Zn -7.349659 8.147098 24.373134
O -3.085469 6.572177 24.257085
O -7.349659 8.147098 26.467549
Zn 5.337972 0.684467 8.899883
Zn 1.073782 2.259388 11.110347
O 5.337972 0.684467 10.994298
O 1.073782 2.259388 13.204762
Zn 5.337972 0.684467 13.320812
Zn 1.073782 2.259388 15.531276
O 5.337972 0.684467 15.415227
O 1.073782 2.259388 17.625691
Zn 5.337972 0.684467 17.741741
Zn 1.073782 2.259388 19.952205
O 5.337972 0.684467 19.836156
O 1.073782 2.259388 22.046620
Zn 2.643891 3.628322 13.320812
Zn -1.620299 5.203243 15.531276
O 2.643891 3.628322 15.415227
O -1.620299 5.203243 17.625691
Zn 2.643891 3.628322 17.741741
Zn -1.620299 5.203243 19.952205
O 2.643891 3.628322 19.836156
O -1.620299 5.203243 22.046620
Zn 2.643891 3.628322 22.162670
Zn -1.620299 5.203243 24.373134
O 2.643891 3.628322 24.257085
O -1.620299 5.203243 26.467549
Zn -0.050190 6.572177 17.741741
Zn -4.314380 8.147098 19.952205
O -0.050190 6.572177 19.836156
O -4.314380 8.147098 22.046620
Zn -0.050190 6.572177 22.162670
Zn -4.314380 8.147098 24.373134
O -0.050190 6.572177 24.257085
O -4.314380 8.147098 26.467549
Zn -0.050190 6.572177 26.583599
Zn -4.314380 8.147098 28.794063
O -0.050190 6.572177 28.678014
O -4.314380 8.147098 30.888478
Zn 8.373251 0.684467 13.320812
Zn 4.109061 2.259388 15.531276
O 8.373251 0.684467 15.415227
O 4.109061 2.259388 17.625691
Zn 8.373251 0.684467 17.741741
Zn 4.109061 2.259388 19.952205
O 8.373251 0.684467 19.836156
O 4.109061 2.259388 22.046620
Zn 8.373251 0.684467 22.162670
Zn 4.109061 2.259388 24.373134
O 8.373251 0.684467 24.257085
O 4.109061 2.259388 26.467549
Zn 5.679170 3.628322 17.741741
Zn 1.414980 5.203243 19.952205
O 5.679170 3.628322 19.836156
O 1.414980 5.203243 22.046620
Zn 5.679170 3.628322 22.162670
Zn 1.414980 5.203243 24.373134
O 5.679170 3.628322 24.257085
O 1.414980 5.203243 26.467549
Zn 5.679170 3.628322 26.583599
Zn 1.414980 5.203243 28.794063
O 5.679170 3.628322 28.678014
O 1.414980 5.203243 30.888478
Zn 2.985089 6.572177 22.162670
Zn -1.279101 8.147098 24.373134
O 2.985089 6.572177 24.257085
O -1.279101 8.147098 26.467549
Zn 2.985089 6.572177 26.583599
Zn -1.279101 8.147098 28.794063
O 2.985089 6.572177 28.678014
O -1.279101 8.147098 30.888478
Zn 2.985089 6.572177 31.004528
Zn -1.279101 8.147098 33.214992
O 2.985089 6.572177 33.098943
O -1.279101 8.147098 35.309407
