108
A
Zn 2.370867 0.608947 4.830239
Zn -1.590987 2.290579 7.175015
O 2.370867 0.608947 6.893641
O -1.590987 2.290579 9.238417
Zn 2.370867 0.608947 9.519791
Zn -1.590987 2.290579 11.864567
O 2.370867 0.608947 11.583193
O -1.590987 2.290579 13.927969
Zn 2.370867 0.608947 14.209343
Zn -1.590987 2.290579 16.554119
O 2.370867 0.608947 16.272745
O -1.590987 2.290579 18.617521
Zn 0.042254 3.508472 9.519791
Zn -3.919601 5.190104 11.864567
O 0.042254 3.508472 11.583193
O -3.919601 5.190104 13.927969
Zn 0.042254 3.508472 14.209343
Zn -3.919601 5.190104 16.554119
O 0.042254 3.508472 16.272745
O -3.919601 5.190104 18.617521
Zn 0.042254 3.508472 18.898895
Zn -3.919601 5.190104 21.243671
O 0.042254 3.508472 20.962297
O -3.919601 5.190104 23.307073
Zn -2.286360 6.407997 14.209343
Zn -6.248215 8.089629 16.554119
O -2.286360 6.407997 16.272745
O -6.248215 8.089629 18.617521
Zn -2.286360 6.407997 18.898895
Zn -6.248215 8.089629 21.243671
O -2.286360 6.407997 20.962297
O -6.248215 8.089629 23.307073
Zn -2.286360 6.407997 23.588447
Zn -6.248215 8.089629 25.933223
O -2.286360 6.407997 25.651849
O -6.248215 8.089629 27.996625
Zn 5.479361 0.608947 9.519791
Zn 1.517506 2.290579 11.864567
O 5.479361 0.608947 11.583193
O 1.517506 2.290579 13.927969
Zn 5.479361 0.608947 14.209343
Zn 1.517506 2.290579 16.554119
O 5.479361 0.608947 16.272745
O 1.517506 2.290579 18.617521
Zn 5.479361 0.608947 18.898895
Zn 1.517506 2.290579 21.243671
O 5.479361 0.608947 20.962297
O 1.517506 2.290579 23.307073
Zn 3.150747 3.508472 14.209343
Zn -0.811107 5.190104 16.554119
O 3.150747 3.508472 16.272745
O -0.811107 5.190104 18.617521
Zn 3.150747 3.508472 18.898895
Zn -0.811107 5.190104 21.243671
O 3.150747 3.508472 20.962297
O -0.811107 5.190104 23.307073
Zn 3.150747 3.508472 23.588447
Zn -0.811107 5.190104 25.933223
O 3.150747 3.508472 25.651849
O -0.811107 5.190104 27.996625
Zn 0.822134 6.407997 18.898895
Zn -3.139721 8.089629 21.243671
O 0.822134 6.407997 20.962297
O -3.139721 8.089629 23.307073
Zn 0.822134 6.407997 23.588447
Zn -3.139721 8.089629 25.933223
O 0.822134 6.407997 25.651849
O -3.139721 8.089629 27.996625
Zn 0.822134 6.407997 28.277999
Zn -3.139721 8.089629 30.622775
O 0.822134 6.407997 30.341401
O -3.139721 8.089629 32.686177
Zn 8.587855 0.608947 14.209343
Zn 4.626000 2.290579 16.554119
O 8.587855 0.608947 16.272745
O 4.626000 2.290579 18.617521
Zn 8.587855 0.608947 18.898895
Zn 4.626000 2.290579 21.243671
O 8.587855 0.608947 20.962297
O 4.626000 2.290579 23.307073
Zn 8.587855 0.608947 23.588447
Zn 4.626000 2.290579 25.933223
O 8.587855 0.608947 25.651849
O 4.626000 2.290579 27.996625
Zn 6.259241 3.508472 18.898895
Zn 2.297386 5.190104 21.243671
O 6.259241 3.508472 20.962297
O 2.297386 5.190104 23.307073
Zn 6.259241 3.508472 23.588447
Zn 2.297386 5.190104 25.933223
O 6.259241 3.508472 25.651849
O 2.297386 5.190104 27.996625
Zn 6.259241 3.508472 28.277999
Zn 2.297386 5.190104 30.622775
O 6.259241 3.508472 30.341401
O 2.297386 5.190104 32.686177
Zn 3.930627 6.407997 23.588447
Zn -0.031227 8.089629 25.933223
O 3.930627 6.407997 25.651849
O -0.031227 8.089629 27.996625
Zn 3.930627 6.407997 28.277999
Zn -0.031227 8.089629 30.622775
O 3.930627 6.407997 30.341401
O -0.031227 8.089629 32.686177
Zn 3.930627 6.407997 32.967551
Zn -0.031227 8.089629 35.312327
O 3.930627 6.407997 35.030953
O -0.031227 8.089629 37.375729
