108
A
Zn 2.435210 0.479612 0.981750
Zn -0.875450 2.341105 3.565302
O 2.435210 0.479612 4.185354
O -0.875450 2.341105 1.601802
Zn 2.435210 0.479612 6.148854
Zn -0.875450 2.341105 8.732406
O 2.435210 0.479612 9.352458
O -0.875450 2.341105 6.768906
Zn 2.435210 0.479612 11.315958
Zn -0.875450 2.341105 13.899510
O 2.435210 0.479612 14.519562
O -0.875450 2.341105 11.936010
Zn 0.756317 3.300329 0.981750
Zn -2.554344 5.161822 3.565302
O 0.756317 3.300329 4.185354
O -2.554344 5.161822 1.601802
Zn 0.756317 3.300329 6.148854
Zn -2.554344 5.161822 8.732406
O 0.756317 3.300329 9.352458
O -2.554344 5.161822 6.768906
Zn 0.756317 3.300329 11.315958
Zn -2.554344 5.161822 13.899510
O 0.756317 3.300329 14.519562
O -2.554344 5.161822 11.936010
Zn -0.922576 6.121046 0.981750
Zn -4.233237 7.982539 3.565302
O -0.922576 6.121046 4.185354
O -4.233237 7.982539 1.601802
Zn -0.922576 6.121046 6.148854
Zn -4.233237 7.982539 8.732406
O -0.922576 6.121046 9.352458
O -4.233237 7.982539 6.768906
Zn -0.922576 6.121046 11.315958
Zn -4.233237 7.982539 13.899510
O -0.922576 6.121046 14.519562
O -4.233237 7.982539 11.936010
Zn 5.673864 0.479612 0.981750
Zn 2.363203 2.341105 3.565302
O 5.673864 0.479612 4.185354
O 2.363203 2.341105 1.601802
Zn 5.673864 0.479612 6.148854
Zn 2.363203 2.341105 8.732406
O 5.673864 0.479612 9.352458
O 2.363203 2.341105 6.768906
Zn 5.673864 0.479612 11.315958
Zn 2.363203 2.341105 13.899510
O 5.673864 0.479612 14.519562
O 2.363203 2.341105 11.936010
Zn 3.994970 3.300329 0.981750
Zn 0.684310 5.161822 3.565302
O 3.994970 3.300329 4.185354
O 0.684310 5.161822 1.601802
Zn 3.994970 3.300329 6.148854
Zn 0.684310 5.161822 8.732406
O 3.994970 3.300329 9.352458
O 0.684310 5.161822 6.768906
Zn 3.994970 3.300329 11.315958
Zn 0.684310 5.161822 13.899510
O 3.994970 3.300329 14.519562
O 0.684310 5.161822 11.936010
Zn 2.316077 6.121046 0.981750
Zn -0.994584 7.982539 3.565302
O 2.316077 6.121046 4.185354
O -0.994584 7.982539 1.601802
Zn 2.316077 6.121046 6.148854
Zn -0.994584 7.982539 8.732406
O 2.316077 6.121046 9.352458
O -0.994584 7.982539 6.768906
Zn 2.316077 6.121046 11.315958
Zn -0.994584 7.982539 13.899510
O 2.316077 6.121046 14.519562
O -0.994584 7.982539 11.936010
Zn 8.912517 0.479612 0.981750
Zn 5.601856 2.341105 3.565302
O 8.912517 0.479612 4.185354
O 5.601856 2.341105 1.601802
Zn 8.912517 0.479612 6.148854
Zn 5.601856 2.341105 8.732406
O 8.912517 0.479612 9.352458
O 5.601856 2.341105 6.768906
Zn 8.912517 0.479612 11.315958
Zn 5.601856 2.341105 13.899510
O 8.912517 0.479612 14.519562
O 5.601856 2.341105 11.936010
Zn 7.233624 3.300329 0.981750
Zn 3.922963 5.161822 3.565302
O 7.233624 3.300329 4.185354
O 3.922963 5.161822 1.601802
Zn 7.233624 3.300329 6.148854
Zn 3.922963 5.161822 8.732406
O 7.233624 3.300329 9.352458
O 3.922963 5.161822 6.768906
Zn 7.233624 3.300329 11.315958
Zn 3.922963 5.161822 13.899510
O 7.233624 3.300329 14.519562
O 3.922963 5.161822 11.936010
Zn 5.554730 6.121046 0.981750
Zn 2.244070 7.982539 3.565302
O 5.554730 6.121046 4.185354
O 2.244070 7.982539 1.601802
Zn 5.554730 6.121046 6.148854
Zn 2.244070 7.982539 8.732406
O 5.554730 6.121046 9.352458
O 2.244070 7.982539 6.768906
Zn 5.554730 6.121046 11.315958
Zn 2.244070 7.982539 13.899510
O 5.554730 6.121046 14.519562
O 2.244070 7.982539 11.936010
