108
A
Zn 2.390274 0.581482 4.962645
Zn -1.447919 2.301625 7.357166
O 2.390274 0.581482 7.009960
O -1.447919 2.301625 9.404481
Zn 2.390274 0.581482 9.751687
Zn -1.447919 2.301625 12.146208
O 2.390274 0.581482 11.799002
O -1.447919 2.301625 14.193523
Zn 2.390274 0.581482 14.540729
Zn -1.447919 2.301625 16.935250
O 2.390274 0.581482 16.588044
O -1.447919 2.301625 18.982565
Zn 0.197018 3.464589 9.751687
Zn -3.641174 5.184732 12.146208
O 0.197018 3.464589 11.799002
O -3.641174 5.184732 14.193523
Zn 0.197018 3.464589 14.540729
Zn -3.641174 5.184732 16.935250
O 0.197018 3.464589 16.588044
O -3.641174 5.184732 18.982565
Zn 0.197018 3.464589 19.329771
Zn -3.641174 5.184732 21.724292
O 0.197018 3.464589 21.377086
O -3.641174 5.184732 23.771607
Zn -1.996237 6.347696 14.540729
Zn -5.834429 8.067838 16.935250
O -1.996237 6.347696 16.588044
O -5.834429 8.067838 18.982565
Zn -1.996237 6.347696 19.329771
Zn -5.834429 8.067838 21.724292
O -1.996237 6.347696 21.377086
O -5.834429 8.067838 23.771607
Zn -1.996237 6.347696 24.118813
Zn -5.834429 8.067838 26.513334
O -1.996237 6.347696 26.166128
O -5.834429 8.067838 28.560649
Zn 5.525884 0.581482 9.751687
Zn 1.687692 2.301625 12.146208
O 5.525884 0.581482 11.799002
O 1.687692 2.301625 14.193523
Zn 5.525884 0.581482 14.540729
Zn 1.687692 2.301625 16.935250
O 5.525884 0.581482 16.588044
O 1.687692 2.301625 18.982565
Zn 5.525884 0.581482 19.329771
Zn 1.687692 2.301625 21.724292
O 5.525884 0.581482 21.377086
O 1.687692 2.301625 23.771607
Zn 3.332629 3.464589 14.540729
Zn -0.505564 5.184732 16.935250
O 3.332629 3.464589 16.588044
O -0.505564 5.184732 18.982565
Zn 3.332629 3.464589 19.329771
Zn -0.505564 5.184732 21.724292
O 3.332629 3.464589 21.377086
O -0.505564 5.184732 23.771607
Zn 3.332629 3.464589 24.118813
Zn -0.505564 5.184732 26.513334
O 3.332629 3.464589 26.166128
O -0.505564 5.184732 28.560649
Zn 1.139373 6.347696 19.329771
Zn -2.698819 8.067838 21.724292
O 1.139373 6.347696 21.377086
O -2.698819 8.067838 23.771607
Zn 1.139373 6.347696 24.118813
Zn -2.698819 8.067838 26.513334
O 1.139373 6.347696 26.166128
O -2.698819 8.067838 28.560649
Zn 1.139373 6.347696 28.907855
Zn -2.698819 8.067838 31.302376
O 1.139373 6.347696 30.955170
O -2.698819 8.067838 33.349691
Zn 8.661494 0.581482 14.540729
Zn 4.823302 2.301625 16.935250
O 8.661494 0.581482 16.588044
O 4.823302 2.301625 18.982565
Zn 8.661494 0.581482 19.329771
Zn 4.823302 2.301625 21.724292
O 8.661494 0.581482 21.377086
O 4.823302 2.301625 23.771607
Zn 8.661494 0.581482 24.118813
Zn 4.823302 2.301625 26.513334
O 8.661494 0.581482 26.166128
O 4.823302 2.301625 28.560649
Zn 6.468239 3.464589 19.329771
Zn 2.630047 5.184732 21.724292
O 6.468239 3.464589 21.377086
O 2.630047 5.184732 23.771607
Zn 6.468239 3.464589 24.118813
Zn 2.630047 5.184732 26.513334
O 6.468239 3.464589 26.166128
O 2.630047 5.184732 28.560649
Zn 6.468239 3.464589 28.907855
Zn 2.630047 5.184732 31.302376
O 6.468239 3.464589 30.955170
O 2.630047 5.184732 33.349691
Zn 4.274984 6.347696 24.118813
Zn 0.436791 8.067838 26.513334
O 4.274984 6.347696 26.166128
O 0.436791 8.067838 28.560649
Zn 4.274984 6.347696 28.907855
Zn 0.436791 8.067838 31.302376
O 4.274984 6.347696 30.955170
O 0.436791 8.067838 33.349691
Zn 4.274984 6.347696 33.696897
Zn 0.436791 8.067838 36.091418
O 4.274984 6.347696 35.744212
O 0.436791 8.067838 38.138733
