108
A
Zn 2.268318 0.715806 1.050926
Zn -2.105843 2.246109 3.206671
O 2.268318 0.715806 3.260564
O -2.105843 2.246109 1.104819
Zn 2.268318 0.715806 5.362416
Zn -2.105843 2.246109 7.518161
O 2.268318 0.715806 7.572054
O -2.105843 2.246109 5.416309
Zn 2.268318 0.715806 9.673906
Zn -2.105843 2.246109 11.829651
O 2.268318 0.715806 11.883544
O -2.105843 2.246109 9.727799
Zn -0.574658 3.677721 1.050926
Zn -4.948818 5.208025 3.206671
O -0.574658 3.677721 3.260564
O -4.948818 5.208025 1.104819
Zn -0.574658 3.677721 5.362416
Zn -4.948818 5.208025 7.518161
O -0.574658 3.677721 7.572054
O -4.948818 5.208025 5.416309
Zn -0.574658 3.677721 9.673906
Zn -4.948818 5.208025 11.829651
O -0.574658 3.677721 11.883544
O -4.948818 5.208025 9.727799
Zn -3.417633 6.639637 1.050926
Zn -7.791793 8.169940 3.206671
O -3.417633 6.639637 3.260564
O -7.791793 8.169940 1.104819
Zn -3.417633 6.639637 5.362416
Zn -7.791793 8.169940 7.518161
O -3.417633 6.639637 7.572054
O -7.791793 8.169940 5.416309
Zn -3.417633 6.639637 9.673906
Zn -7.791793 8.169940 11.829651
O -3.417633 6.639637 11.883544
O -7.791793 8.169940 9.727799
Zn 5.273768 0.715806 1.050926
Zn 0.899608 2.246109 3.206671
O 5.273768 0.715806 3.260564
O 0.899608 2.246109 1.104819
Zn 5.273768 0.715806 5.362416
Zn 0.899608 2.246109 7.518161
O 5.273768 0.715806 7.572054
O 0.899608 2.246109 5.416309
Zn 5.273768 0.715806 9.673906
Zn 0.899608 2.246109 11.829651
O 5.273768 0.715806 11.883544
O 0.899608 2.246109 9.727799
Zn 2.430793 3.677721 1.050926
Zn -1.943368 5.208025 3.206671
O 2.430793 3.677721 3.260564
O -1.943368 5.208025 1.104819
Zn 2.430793 3.677721 5.362416
Zn -1.943368 5.208025 7.518161
O 2.430793 3.677721 7.572054
O -1.943368 5.208025 5.416309
Zn 2.430793 3.677721 9.673906
Zn -1.943368 5.208025 11.829651
O 2.430793 3.677721 11.883544
O -1.943368 5.208025 9.727799
Zn -0.412183 6.639637 1.050926
Zn -4.786343 8.169940 3.206671
O -0.412183 6.639637 3.260564
O -4.786343 8.169940 1.104819
Zn -0.412183 6.639637 5.362416
Zn -4.786343 8.169940 7.518161
O -0.412183 6.639637 7.572054
O -4.786343 8.169940 5.416309
Zn -0.412183 6.639637 9.673906
Zn -4.786343 8.169940 11.829651
O -0.412183 6.639637 11.883544
O -4.786343 8.169940 9.727799
Zn 8.279218 0.715806 1.050926
Zn 3.905058 2.246109 3.206671
O 8.279218 0.715806 3.260564
O 3.905058 2.246109 1.104819
Zn 8.279218 0.715806 5.362416
Zn 3.905058 2.246109 7.518161
O 8.279218 0.715806 7.572054
O 3.905058 2.246109 5.416309
Zn 8.279218 0.715806 9.673906
Zn 3.905058 2.246109 11.829651
O 8.279218 0.715806 11.883544
O 3.905058 2.246109 9.727799
Zn 5.436243 3.677721 1.050926
Zn 1.062083 5.208025 3.206671
O 5.436243 3.677721 3.260564
O 1.062083 5.208025 1.104819
Zn 5.436243 3.677721 5.362416
Zn 1.062083 5.208025 7.518161
O 5.436243 3.677721 7.572054
O 1.062083 5.208025 5.416309
Zn 5.436243 3.677721 9.673906
Zn 1.062083 5.208025 11.829651
O 5.436243 3.677721 11.883544
O 1.062083 5.208025 9.727799
Zn 2.593268 6.639637 1.050926
Zn -1.780893 8.169940 3.206671
O 2.593268 6.639637 3.260564
O -1.780893 8.169940 1.104819
Zn 2.593268 6.639637 5.362416
Zn -1.780893 8.169940 7.518161
O 2.593268 6.639637 7.572054
O -1.780893 8.169940 5.416309
Zn 2.593268 6.639637 9.673906
Zn -1.780893 8.169940 11.829651
O 2.593268 6.639637 11.883544
O -1.780893 8.169940 9.727799
