108
A
Zn 2.261657 0.721540 1.051440
Zn -2.131677 2.243659 3.197236
O 2.261657 0.721540 3.240152
O -2.131677 2.243659 1.094356
Zn 2.261657 0.721540 5.343032
Zn -2.131677 2.243659 7.488828
O 2.261657 0.721540 7.531744
O -2.131677 2.243659 5.385948
Zn 2.261657 0.721540 9.634624
Zn -2.131677 2.243659 11.780420
O 2.261657 0.721540 11.823336
O -2.131677 2.243659 9.677540
Zn -0.608390 3.686739 1.051440
Zn -5.001724 5.208858 3.197236
O -0.608390 3.686739 3.240152
O -5.001724 5.208858 1.094356
Zn -0.608390 3.686739 5.343032
Zn -5.001724 5.208858 7.488828
O -0.608390 3.686739 7.531744
O -5.001724 5.208858 5.385948
Zn -0.608390 3.686739 9.634624
Zn -5.001724 5.208858 11.780420
O -0.608390 3.686739 11.823336
O -5.001724 5.208858 9.677540
Zn -3.478437 6.651938 1.051440
Zn -7.871771 8.174057 3.197236
O -3.478437 6.651938 3.240152
O -7.871771 8.174057 1.094356
Zn -3.478437 6.651938 5.343032
Zn -7.871771 8.174057 7.488828
O -3.478437 6.651938 7.531744
O -7.871771 8.174057 5.385948
Zn -3.478437 6.651938 9.634624
Zn -7.871771 8.174057 11.780420
O -3.478437 6.651938 11.823336
O -7.871771 8.174057 9.677540
Zn 5.261684 0.721540 1.051440
Zn 0.868350 2.243659 3.197236
O 5.261684 0.721540 3.240152
O 0.868350 2.243659 1.094356
Zn 5.261684 0.721540 5.343032
Zn 0.868350 2.243659 7.488828
O 5.261684 0.721540 7.531744
O 0.868350 2.243659 5.385948
Zn 5.261684 0.721540 9.634624
Zn 0.868350 2.243659 11.780420
O 5.261684 0.721540 11.823336
O 0.868350 2.243659 9.677540
Zn 2.391637 3.686739 1.051440
Zn -2.001697 5.208858 3.197236
O 2.391637 3.686739 3.240152
O -2.001697 5.208858 1.094356
Zn 2.391637 3.686739 5.343032
Zn -2.001697 5.208858 7.488828
O 2.391637 3.686739 7.531744
O -2.001697 5.208858 5.385948
Zn 2.391637 3.686739 9.634624
Zn -2.001697 5.208858 11.780420
O 2.391637 3.686739 11.823336
O -2.001697 5.208858 9.677540
Zn -0.478410 6.651938 1.051440
Zn -4.871744 8.174057 3.197236
O -0.478410 6.651938 3.240152
O -4.871744 8.174057 1.094356
Zn -0.478410 6.651938 5.343032
Zn -4.871744 8.174057 7.488828
O -0.478410 6.651938 7.531744
O -4.871744 8.174057 5.385948
Zn -0.478410 6.651938 9.634624
Zn -4.871744 8.174057 11.780420
O -0.478410 6.651938 11.823336
O -4.871744 8.174057 9.677540
Zn 8.261711 0.721540 1.051440
Zn 3.868377 2.243659 3.197236
O 8.261711 0.721540 3.240152
O 3.868377 2.243659 1.094356
Zn 8.261711 0.721540 5.343032
Zn 3.868377 2.243659 7.488828
O 8.261711 0.721540 7.531744
O 3.868377 2.243659 5.385948
Zn 8.261711 0.721540 9.634624
Zn 3.868377 2.243659 11.780420
O 8.261711 0.721540 11.823336
O 3.868377 2.243659 9.677540
Zn 5.391664 3.686739 1.051440
Zn 0.998330 5.208858 3.197236
O 5.391664 3.686739 3.240152
O 0.998330 5.208858 1.094356
Zn 5.391664 3.686739 5.343032
Zn 0.998330 5.208858 7.488828
O 5.391664 3.686739 7.531744
O 0.998330 5.208858 5.385948
Zn 5.391664 3.686739 9.634624
Zn 0.998330 5.208858 11.780420
O 5.391664 3.686739 11.823336
O 0.998330 5.208858 9.677540
Zn 2.521617 6.651938 1.051440
Zn -1.871717 8.174057 3.197236
O 2.521617 6.651938 3.240152
O -1.871717 8.174057 1.094356
Zn 2.521617 6.651938 5.343032
Zn -1.871717 8.174057 7.488828
O 2.521617 6.651938 7.531744
O -1.871717 8.174057 5.385948
Zn 2.521617 6.651938 9.634624
Zn -1.871717 8.174057 11.780420
O 2.521617 6.651938 11.823336
O -1.871717 8.174057 9.677540
