108
A
Zn 2.281260 0.704372 4.389360
Zn -2.053795 2.250976 6.565003
O 2.281260 0.704372 6.488855
O -2.053795 2.250976 8.664498
Zn 2.281260 0.704372 8.740646
Zn -2.053795 2.250976 10.916289
O 2.281260 0.704372 10.840141
O -2.053795 2.250976 13.015784
Zn 2.281260 0.704372 13.091932
Zn -2.053795 2.250976 15.267575
O 2.281260 0.704372 15.191427
O -2.053795 2.250976 17.367070
Zn -0.507572 3.659720 8.740646
Zn -4.842627 5.206324 10.916289
O -0.507572 3.659720 10.840141
O -4.842627 5.206324 13.015784
Zn -0.507572 3.659720 13.091932
Zn -4.842627 5.206324 15.267575
O -0.507572 3.659720 15.191427
O -4.842627 5.206324 17.367070
Zn -0.507572 3.659720 17.443218
Zn -4.842627 5.206324 19.618861
O -0.507572 3.659720 19.542713
O -4.842627 5.206324 21.718356
Zn -3.296404 6.615068 13.091932
Zn -7.631459 8.161672 15.267575
O -3.296404 6.615068 15.191427
O -7.631459 8.161672 17.367070
Zn -3.296404 6.615068 17.443218
Zn -7.631459 8.161672 19.618861
O -3.296404 6.615068 19.542713
O -7.631459 8.161672 21.718356
Zn -3.296404 6.615068 21.794504
Zn -7.631459 8.161672 23.970147
O -3.296404 6.615068 23.893999
O -7.631459 8.161672 26.069642
Zn 5.297557 0.704372 8.740646
Zn 0.962502 2.250976 10.916289
O 5.297557 0.704372 10.840141
O 0.962502 2.250976 13.015784
Zn 5.297557 0.704372 13.091932
Zn 0.962502 2.250976 15.267575
O 5.297557 0.704372 15.191427
O 0.962502 2.250976 17.367070
Zn 5.297557 0.704372 17.443218
Zn 0.962502 2.250976 19.618861
O 5.297557 0.704372 19.542713
O 0.962502 2.250976 21.718356
Zn 2.508725 3.659720 13.091932
Zn -1.826330 5.206324 15.267575
O 2.508725 3.659720 15.191427
O -1.826330 5.206324 17.367070
Zn 2.508725 3.659720 17.443218
Zn -1.826330 5.206324 19.618861
O 2.508725 3.659720 19.542713
O -1.826330 5.206324 21.718356
Zn 2.508725 3.659720 21.794504
Zn -1.826330 5.206324 23.970147
O 2.508725 3.659720 23.893999
O -1.826330 5.206324 26.069642
Zn -0.280107 6.615068 17.443218
Zn -4.615162 8.161672 19.618861
O -0.280107 6.615068 19.542713
O -4.615162 8.161672 21.718356
Zn -0.280107 6.615068 21.794504
Zn -4.615162 8.161672 23.970147
O -0.280107 6.615068 23.893999
O -4.615162 8.161672 26.069642
Zn -0.280107 6.615068 26.145790
Zn -4.615162 8.161672 28.321433
O -0.280107 6.615068 28.245285
O -4.615162 8.161672 30.420928
Zn 8.313854 0.704372 13.091932
Zn 3.978799 2.250976 15.267575
O 8.313854 0.704372 15.191427
O 3.978799 2.250976 17.367070
Zn 8.313854 0.704372 17.443218
Zn 3.978799 2.250976 19.618861
O 8.313854 0.704372 19.542713
O 3.978799 2.250976 21.718356
Zn 8.313854 0.704372 21.794504
Zn 3.978799 2.250976 23.970147
O 8.313854 0.704372 23.893999
O 3.978799 2.250976 26.069642
Zn 5.525022 3.659720 17.443218
Zn 1.189967 5.206324 19.618861
O 5.525022 3.659720 19.542713
O 1.189967 5.206324 21.718356
Zn 5.525022 3.659720 21.794504
Zn 1.189967 5.206324 23.970147
O 5.525022 3.659720 23.893999
O 1.189967 5.206324 26.069642
Zn 5.525022 3.659720 26.145790
Zn 1.189967 5.206324 28.321433
O 5.525022 3.659720 28.245285
O 1.189967 5.206324 30.420928
Zn 2.736190 6.615068 21.794504
Zn -1.598865 8.161672 23.970147
O 2.736190 6.615068 23.893999
O -1.598865 8.161672 26.069642
Zn 2.736190 6.615068 26.145790
Zn -1.598865 8.161672 28.321433
O 2.736190 6.615068 28.245285
O -1.598865 8.161672 30.420928
Zn 2.736190 6.615068 30.497076
Zn -1.598865 8.161672 32.672719
O 2.736190 6.615068 32.596571
O -1.598865 8.161672 34.772214
