108
A
Zn 2.390274 0.581482 1.023658
Zn -1.447919 2.301625 3.418179
O 2.390274 0.581482 3.765384
O -1.447919 2.301625 1.370863
Zn 2.390274 0.581482 5.812700
Zn -1.447919 2.301625 8.207221
O 2.390274 0.581482 8.554426
O -1.447919 2.301625 6.159905
Zn 2.390274 0.581482 10.601742
Zn -1.447919 2.301625 12.996263
O 2.390274 0.581482 13.343468
O -1.447919 2.301625 10.948947
Zn 0.197018 3.464589 1.023658
Zn -3.641174 5.184732 3.418179
O 0.197018 3.464589 3.765384
O -3.641174 5.184732 1.370863
Zn 0.197018 3.464589 5.812700
Zn -3.641174 5.184732 8.207221
O 0.197018 3.464589 8.554426
O -3.641174 5.184732 6.159905
Zn 0.197018 3.464589 10.601742
Zn -3.641174 5.184732 12.996263
O 0.197018 3.464589 13.343468
O -3.641174 5.184732 10.948947
Zn -1.996237 6.347696 1.023658
Zn -5.834429 8.067838 3.418179
O -1.996237 6.347696 3.765384
O -5.834429 8.067838 1.370863
Zn -1.996237 6.347696 5.812700
Zn -5.834429 8.067838 8.207221
O -1.996237 6.347696 8.554426
O -5.834429 8.067838 6.159905
Zn -1.996237 6.347696 10.601742
Zn -5.834429 8.067838 12.996263
O -1.996237 6.347696 13.343468
O -5.834429 8.067838 10.948947
Zn 5.525884 0.581482 1.023658
Zn 1.687692 2.301625 3.418179
O 5.525884 0.581482 3.765384
O 1.687692 2.301625 1.370863
Zn 5.525884 0.581482 5.812700
Zn 1.687692 2.301625 8.207221
O 5.525884 0.581482 8.554426
O 1.687692 2.301625 6.159905
Zn 5.525884 0.581482 10.601742
Zn 1.687692 2.301625 12.996263
O 5.525884 0.581482 13.343468
O 1.687692 2.301625 10.948947
Zn 3.332629 3.464589 1.023658
Zn -0.505564 5.184732 3.418179
O 3.332629 3.464589 3.765384
O -0.505564 5.184732 1.370863
Zn 3.332629 3.464589 5.812700
Zn -0.505564 5.184732 8.207221
O 3.332629 3.464589 8.554426
O -0.505564 5.184732 6.159905
Zn 3.332629 3.464589 10.601742
Zn -0.505564 5.184732 12.996263
O 3.332629 3.464589 13.343468
O -0.505564 5.184732 10.948947
Zn 1.139373 6.347696 1.023658
Zn -2.698819 8.067838 3.418179
O 1.139373 6.347696 3.765384
O -2.698819 8.067838 1.370863
Zn 1.139373 6.347696 5.812700
Zn -2.698819 8.067838 8.207221
O 1.139373 6.347696 8.554426
O -2.698819 8.067838 6.159905
Zn 1.139373 6.347696 10.601742
Zn -2.698819 8.067838 12.996263
O 1.139373 6.347696 13.343468
O -2.698819 8.067838 10.948947
Zn 8.661494 0.581482 1.023658
Zn 4.823302 2.301625 3.418179
O 8.661494 0.581482 3.765384
O 4.823302 2.301625 1.370863
Zn 8.661494 0.581482 5.812700
Zn 4.823302 2.301625 8.207221
O 8.661494 0.581482 8.554426
O 4.823302 2.301625 6.159905
Zn 8.661494 0.581482 10.601742
Zn 4.823302 2.301625 12.996263
O 8.661494 0.581482 13.343468
O 4.823302 2.301625 10.948947
Zn 6.468239 3.464589 1.023658
Zn 2.630047 5.184732 3.418179
O 6.468239 3.464589 3.765384
O 2.630047 5.184732 1.370863
Zn 6.468239 3.464589 5.812700
Zn 2.630047 5.184732 8.207221
O 6.468239 3.464589 8.554426
O 2.630047 5.184732 6.159905
Zn 6.468239 3.464589 10.601742
Zn 2.630047 5.184732 12.996263
O 6.468239 3.464589 13.343468
O 2.630047 5.184732 10.948947
Zn 4.274984 6.347696 1.023658
Zn 0.436791 8.067838 3.418179
O 4.274984 6.347696 3.765384
O 0.436791 8.067838 1.370863
Zn 4.274984 6.347696 5.812700
Zn 0.436791 8.067838 8.207221
O 4.274984 6.347696 8.554426
O 0.436791 8.067838 6.159905
Zn 4.274984 6.347696 10.601742
Zn 0.436791 8.067838 12.996263
O 4.274984 6.347696 13.343468
O 0.436791 8.067838 10.948947
