108
A
Zn 2.425947 0.511355 5.312721
Zn -1.061157 2.329064 7.836579
O 2.425947 0.511355 7.306569
O -1.061157 2.329064 9.830427
Zn 2.425947 0.511355 10.360437
Zn -1.061157 2.329064 12.884295
O 2.425947 0.511355 12.354285
O -1.061157 2.329064 14.878143
Zn 2.425947 0.511355 15.408153
Zn -1.061157 2.329064 17.932011
O 2.425947 0.511355 17.402001
O -1.061157 2.329064 19.925859
Zn 0.584624 3.351774 10.360437
Zn -2.902481 5.169483 12.884295
O 0.584624 3.351774 12.354285
O -2.902481 5.169483 14.878143
Zn 0.584624 3.351774 15.408153
Zn -2.902481 5.169483 17.932011
O 0.584624 3.351774 17.402001
O -2.902481 5.169483 19.925859
Zn 0.584624 3.351774 20.455869
Zn -2.902481 5.169483 22.979727
O 0.584624 3.351774 22.449717
O -2.902481 5.169483 24.973575
Zn -1.256700 6.192193 15.408153
Zn -4.743804 8.009902 17.932011
O -1.256700 6.192193 17.402001
O -4.743804 8.009902 19.925859
Zn -1.256700 6.192193 20.455869
Zn -4.743804 8.009902 22.979727
O -1.256700 6.192193 22.449717
O -4.743804 8.009902 24.973575
Zn -1.256700 6.192193 25.503585
Zn -4.743804 8.009902 28.027443
O -1.256700 6.192193 27.497433
O -4.743804 8.009902 30.021291
Zn 5.632061 0.511355 10.360437
Zn 2.144956 2.329064 12.884295
O 5.632061 0.511355 12.354285
O 2.144956 2.329064 14.878143
Zn 5.632061 0.511355 15.408153
Zn 2.144956 2.329064 17.932011
O 5.632061 0.511355 17.402001
O 2.144956 2.329064 19.925859
Zn 5.632061 0.511355 20.455869
Zn 2.144956 2.329064 22.979727
O 5.632061 0.511355 22.449717
O 2.144956 2.329064 24.973575
Zn 3.790737 3.351774 15.408153
Zn 0.303633 5.169483 17.932011
O 3.790737 3.351774 17.402001
O 0.303633 5.169483 19.925859
Zn 3.790737 3.351774 20.455869
Zn 0.303633 5.169483 22.979727
O 3.790737 3.351774 22.449717
O 0.303633 5.169483 24.973575
Zn 3.790737 3.351774 25.503585
Zn 0.303633 5.169483 28.027443
O 3.790737 3.351774 27.497433
O 0.303633 5.169483 30.021291
Zn 1.949414 6.192193 20.455869
Zn -1.537691 8.009902 22.979727
O 1.949414 6.192193 22.449717
O -1.537691 8.009902 24.973575
Zn 1.949414 6.192193 25.503585
Zn -1.537691 8.009902 28.027443
O 1.949414 6.192193 27.497433
O -1.537691 8.009902 30.021291
Zn 1.949414 6.192193 30.551301
Zn -1.537691 8.009902 33.075159
O 1.949414 6.192193 32.545149
O -1.537691 8.009902 35.069007
Zn 8.838174 0.511355 15.408153
Zn 5.351070 2.329064 17.932011
O 8.838174 0.511355 17.402001
O 5.351070 2.329064 19.925859
Zn 8.838174 0.511355 20.455869
Zn 5.351070 2.329064 22.979727
O 8.838174 0.511355 22.449717
O 5.351070 2.329064 24.973575
Zn 8.838174 0.511355 25.503585
Zn 5.351070 2.329064 28.027443
O 8.838174 0.511355 27.497433
O 5.351070 2.329064 30.021291
Zn 6.996851 3.351774 20.455869
Zn 3.509746 5.169483 22.979727
O 6.996851 3.351774 22.449717
O 3.509746 5.169483 24.973575
Zn 6.996851 3.351774 25.503585
Zn 3.509746 5.169483 28.027443
O 6.996851 3.351774 27.497433
O 3.509746 5.169483 30.021291
Zn 6.996851 3.351774 30.551301
Zn 3.509746 5.169483 33.075159
O 6.996851 3.351774 32.545149
O 3.509746 5.169483 35.069007
Zn 5.155527 6.192193 25.503585
Zn 1.668423 8.009902 28.027443
O 5.155527 6.192193 27.497433
O 1.668423 8.009902 30.021291
Zn 5.155527 6.192193 30.551301
Zn 1.668423 8.009902 33.075159
O 5.155527 6.192193 32.545149
O 1.668423 8.009902 35.069007
Zn 5.155527 6.192193 35.599017
Zn 1.668423 8.009902 38.122875
O 5.155527 6.192193 37.592865
O 1.668423 8.009902 40.116723
