108
A
Zn 2.393776 0.576022 1.021900
Zn -1.418926 2.303801 3.426370
O 2.393776 0.576022 3.787040
O -1.418926 2.303801 1.382570
Zn 2.393776 0.576022 5.830840
Zn -1.418926 2.303801 8.235310
O 2.393776 0.576022 8.595980
O -1.418926 2.303801 6.191510
Zn 2.393776 0.576022 10.639780
Zn -1.418926 2.303801 13.044250
O 2.393776 0.576022 13.404920
O -1.418926 2.303801 11.000450
Zn 0.227592 3.455845 1.021900
Zn -3.585109 5.183624 3.426370
O 0.227592 3.455845 3.787040
O -3.585109 5.183624 1.382570
Zn 0.227592 3.455845 5.830840
Zn -3.585109 5.183624 8.235310
O 0.227592 3.455845 8.595980
O -3.585109 5.183624 6.191510
Zn 0.227592 3.455845 10.639780
Zn -3.585109 5.183624 13.044250
O 0.227592 3.455845 13.404920
O -3.585109 5.183624 11.000450
Zn -1.938591 6.335669 1.021900
Zn -5.751293 8.063447 3.426370
O -1.938591 6.335669 3.787040
O -5.751293 8.063447 1.382570
Zn -1.938591 6.335669 5.830840
Zn -5.751293 8.063447 8.235310
O -1.938591 6.335669 8.595980
O -5.751293 8.063447 6.191510
Zn -1.938591 6.335669 10.639780
Zn -5.751293 8.063447 13.044250
O -1.938591 6.335669 13.404920
O -5.751293 8.063447 11.000450
Zn 5.534809 0.576022 1.021900
Zn 1.722108 2.303801 3.426370
O 5.534809 0.576022 3.787040
O 1.722108 2.303801 1.382570
Zn 5.534809 0.576022 5.830840
Zn 1.722108 2.303801 8.235310
O 5.534809 0.576022 8.595980
O 1.722108 2.303801 6.191510
Zn 5.534809 0.576022 10.639780
Zn 1.722108 2.303801 13.044250
O 5.534809 0.576022 13.404920
O 1.722108 2.303801 11.000450
Zn 3.368626 3.455845 1.021900
Zn -0.444076 5.183624 3.426370
O 3.368626 3.455845 3.787040
O -0.444076 5.183624 1.382570
Zn 3.368626 3.455845 5.830840
Zn -0.444076 5.183624 8.235310
O 3.368626 3.455845 8.595980
O -0.444076 5.183624 6.191510
Zn 3.368626 3.455845 10.639780
Zn -0.444076 5.183624 13.044250
O 3.368626 3.455845 13.404920
O -0.444076 5.183624 11.000450
Zn 1.202442 6.335669 1.021900
Zn -2.610259 8.063447 3.426370
O 1.202442 6.335669 3.787040
O -2.610259 8.063447 1.382570
Zn 1.202442 6.335669 5.830840
Zn -2.610259 8.063447 8.235310
O 1.202442 6.335669 8.595980
O -2.610259 8.063447 6.191510
Zn 1.202442 6.335669 10.639780
Zn -2.610259 8.063447 13.044250
O 1.202442 6.335669 13.404920
O -2.610259 8.063447 11.000450
Zn 8.675843 0.576022 1.021900
Zn 4.863141 2.303801 3.426370
O 8.675843 0.576022 3.787040
O 4.863141 2.303801 1.382570
Zn 8.675843 0.576022 5.830840
Zn 4.863141 2.303801 8.235310
O 8.675843 0.576022 8.595980
O 4.863141 2.303801 6.191510
Zn 8.675843 0.576022 10.639780
Zn 4.863141 2.303801 13.044250
O 8.675843 0.576022 13.404920
O 4.863141 2.303801 11.000450
Zn 6.509659 3.455845 1.021900
Zn 2.696958 5.183624 3.426370
O 6.509659 3.455845 3.787040
O 2.696958 5.183624 1.382570
Zn 6.509659 3.455845 5.830840
Zn 2.696958 5.183624 8.235310
O 6.509659 3.455845 8.595980
O 2.696958 5.183624 6.191510
Zn 6.509659 3.455845 10.639780
Zn 2.696958 5.183624 13.044250
O 6.509659 3.455845 13.404920
O 2.696958 5.183624 11.000450
Zn 4.343476 6.335669 1.021900
Zn 0.530774 8.063447 3.426370
O 4.343476 6.335669 3.787040
O 0.530774 8.063447 1.382570
Zn 4.343476 6.335669 5.830840
Zn 0.530774 8.063447 8.235310
O 4.343476 6.335669 8.595980
O 0.530774 8.063447 6.191510
Zn 4.343476 6.335669 10.639780
Zn 0.530774 8.063447 13.044250
O 4.343476 6.335669 13.404920
O 0.530774 8.063447 11.000450
