108
A
Zn 2.244452 0.735922 4.249800
Zn -2.195710 2.237487 6.370724
O 2.244452 0.735922 6.354817
O -2.195710 2.237487 8.475741
Zn 2.244452 0.735922 8.491647
Zn -2.195710 2.237487 10.612571
O 2.244452 0.735922 10.596664
O -2.195710 2.237487 12.717588
Zn 2.244452 0.735922 12.733494
Zn -2.195710 2.237487 14.854418
O 2.244452 0.735922 14.838511
O -2.195710 2.237487 16.959435
Zn -0.693274 3.709330 8.491647
Zn -5.133436 5.210895 10.612571
O -0.693274 3.709330 10.596664
O -5.133436 5.210895 12.717588
Zn -0.693274 3.709330 12.733494
Zn -5.133436 5.210895 14.854418
O -0.693274 3.709330 14.838511
O -5.133436 5.210895 16.959435
Zn -0.693274 3.709330 16.975341
Zn -5.133436 5.210895 19.096265
O -0.693274 3.709330 19.080358
O -5.133436 5.210895 21.201282
Zn -3.631000 6.682738 12.733494
Zn -8.071162 8.184303 14.854418
O -3.631000 6.682738 14.838511
O -8.071162 8.184303 16.959435
Zn -3.631000 6.682738 16.975341
Zn -8.071162 8.184303 19.096265
O -3.631000 6.682738 19.080358
O -8.071162 8.184303 21.201282
Zn -3.631000 6.682738 21.217188
Zn -8.071162 8.184303 23.338112
O -3.631000 6.682738 23.322205
O -8.071162 8.184303 25.443129
Zn 5.230921 0.735922 8.491647
Zn 0.790759 2.237487 10.612571
O 5.230921 0.735922 10.596664
O 0.790759 2.237487 12.717588
Zn 5.230921 0.735922 12.733494
Zn 0.790759 2.237487 14.854418
O 5.230921 0.735922 14.838511
O 0.790759 2.237487 16.959435
Zn 5.230921 0.735922 16.975341
Zn 0.790759 2.237487 19.096265
O 5.230921 0.735922 19.080358
O 0.790759 2.237487 21.201282
Zn 2.293195 3.709330 12.733494
Zn -2.146967 5.210895 14.854418
O 2.293195 3.709330 14.838511
O -2.146967 5.210895 16.959435
Zn 2.293195 3.709330 16.975341
Zn -2.146967 5.210895 19.096265
O 2.293195 3.709330 19.080358
O -2.146967 5.210895 21.201282
Zn 2.293195 3.709330 21.217188
Zn -2.146967 5.210895 23.338112
O 2.293195 3.709330 23.322205
O -2.146967 5.210895 25.443129
Zn -0.644532 6.682738 16.975341
Zn -5.084693 8.184303 19.096265
O -0.644532 6.682738 19.080358
O -5.084693 8.184303 21.201282
Zn -0.644532 6.682738 21.217188
Zn -5.084693 8.184303 23.338112
O -0.644532 6.682738 23.322205
O -5.084693 8.184303 25.443129
Zn -0.644532 6.682738 25.459035
Zn -5.084693 8.184303 27.579959
O -0.644532 6.682738 27.564052
O -5.084693 8.184303 29.684976
Zn 8.217390 0.735922 12.733494
Zn 3.777228 2.237487 14.854418
O 8.217390 0.735922 14.838511
O 3.777228 2.237487 16.959435
Zn 8.217390 0.735922 16.975341
Zn 3.777228 2.237487 19.096265
O 8.217390 0.735922 19.080358
O 3.777228 2.237487 21.201282
Zn 8.217390 0.735922 21.217188
Zn 3.777228 2.237487 23.338112
O 8.217390 0.735922 23.322205
O 3.777228 2.237487 25.443129
Zn 5.279663 3.709330 16.975341
Zn 0.839502 5.210895 19.096265
O 5.279663 3.709330 19.080358
O 0.839502 5.210895 21.201282
Zn 5.279663 3.709330 21.217188
Zn 0.839502 5.210895 23.338112
O 5.279663 3.709330 23.322205
O 0.839502 5.210895 25.443129
Zn 5.279663 3.709330 25.459035
Zn 0.839502 5.210895 27.579959
O 5.279663 3.709330 27.564052
O 0.839502 5.210895 29.684976
Zn 2.341937 6.682738 21.217188
Zn -2.098225 8.184303 23.338112
O 2.341937 6.682738 23.322205
O -2.098225 8.184303 25.443129
Zn 2.341937 6.682738 25.459035
Zn -2.098225 8.184303 27.579959
O 2.341937 6.682738 27.564052
O -2.098225 8.184303 29.684976
Zn 2.341937 6.682738 29.700882
Zn -2.098225 8.184303 31.821806
O 2.341937 6.682738 31.805899
O -2.098225 8.184303 33.926823
