108
A
Zn 2.244452 0.735922 1.052508
Zn -2.195710 2.237487 3.173432
O 2.244452 0.735922 3.189339
O -2.195710 2.237487 1.068415
Zn 2.244452 0.735922 5.294355
Zn -2.195710 2.237487 7.415279
O 2.244452 0.735922 7.431186
O -2.195710 2.237487 5.310262
Zn 2.244452 0.735922 9.536202
Zn -2.195710 2.237487 11.657126
O 2.244452 0.735922 11.673033
O -2.195710 2.237487 9.552109
Zn -0.693274 3.709330 1.052508
Zn -5.133436 5.210895 3.173432
O -0.693274 3.709330 3.189339
O -5.133436 5.210895 1.068415
Zn -0.693274 3.709330 5.294355
Zn -5.133436 5.210895 7.415279
O -0.693274 3.709330 7.431186
O -5.133436 5.210895 5.310262
Zn -0.693274 3.709330 9.536202
Zn -5.133436 5.210895 11.657126
O -0.693274 3.709330 11.673033
O -5.133436 5.210895 9.552109
Zn -3.631000 6.682738 1.052508
Zn -8.071162 8.184303 3.173432
O -3.631000 6.682738 3.189339
O -8.071162 8.184303 1.068415
Zn -3.631000 6.682738 5.294355
Zn -8.071162 8.184303 7.415279
O -3.631000 6.682738 7.431186
O -8.071162 8.184303 5.310262
Zn -3.631000 6.682738 9.536202
Zn -8.071162 8.184303 11.657126
O -3.631000 6.682738 11.673033
O -8.071162 8.184303 9.552109
Zn 5.230921 0.735922 1.052508
Zn 0.790759 2.237487 3.173432
O 5.230921 0.735922 3.189339
O 0.790759 2.237487 1.068415
Zn 5.230921 0.735922 5.294355
Zn 0.790759 2.237487 7.415279
O 5.230921 0.735922 7.431186
O 0.790759 2.237487 5.310262
Zn 5.230921 0.735922 9.536202
Zn 0.790759 2.237487 11.657126
O 5.230921 0.735922 11.673033
O 0.790759 2.237487 9.552109
Zn 2.293195 3.709330 1.052508
Zn -2.146967 5.210895 3.173432
O 2.293195 3.709330 3.189339
O -2.146967 5.210895 1.068415
Zn 2.293195 3.709330 5.294355
Zn -2.146967 5.210895 7.415279
O 2.293195 3.709330 7.431186
O -2.146967 5.210895 5.310262
Zn 2.293195 3.709330 9.536202
Zn -2.146967 5.210895 11.657126
O 2.293195 3.709330 11.673033
O -2.146967 5.210895 9.552109
Zn -0.644532 6.682738 1.052508
Zn -5.084693 8.184303 3.173432
O -0.644532 6.682738 3.189339
O -5.084693 8.184303 1.068415
Zn -0.644532 6.682738 5.294355
Zn -5.084693 8.184303 7.415279
O -0.644532 6.682738 7.431186
O -5.084693 8.184303 5.310262
Zn -0.644532 6.682738 9.536202
Zn -5.084693 8.184303 11.657126
O -0.644532 6.682738 11.673033
O -5.084693 8.184303 9.552109
Zn 8.217390 0.735922 1.052508
Zn 3.777228 2.237487 3.173432
O 8.217390 0.735922 3.189339
O 3.777228 2.237487 1.068415
Zn 8.217390 0.735922 5.294355
Zn 3.777228 2.237487 7.415279
O 8.217390 0.735922 7.431186
O 3.777228 2.237487 5.310262
Zn 8.217390 0.735922 9.536202
Zn 3.777228 2.237487 11.657126
O 8.217390 0.735922 11.673033
O 3.777228 2.237487 9.552109
Zn 5.279663 3.709330 1.052508
Zn 0.839502 5.210895 3.173432
O 5.279663 3.709330 3.189339
O 0.839502 5.210895 1.068415
Zn 5.279663 3.709330 5.294355
Zn 0.839502 5.210895 7.415279
O 5.279663 3.709330 7.431186
O 0.839502 5.210895 5.310262
Zn 5.279663 3.709330 9.536202
Zn 0.839502 5.210895 11.657126
O 5.279663 3.709330 11.673033
O 0.839502 5.210895 9.552109
Zn 2.341937 6.682738 1.052508
Zn -2.098225 8.184303 3.173432
O 2.341937 6.682738 3.189339
O -2.098225 8.184303 1.068415
Zn 2.341937 6.682738 5.294355
Zn -2.098225 8.184303 7.415279
O 2.341937 6.682738 7.431186
O -2.098225 8.184303 5.310262
Zn 2.341937 6.682738 9.536202
Zn -2.098225 8.184303 11.657126
O 2.341937 6.682738 11.673033
O -2.098225 8.184303 9.552109
