108
A
Zn 2.392040 0.578751 1.022785
Zn -1.433438 2.302714 3.422280
O 2.392040 0.578751 3.776206
O -1.433438 2.302714 1.376711
Zn 2.392040 0.578751 5.821776
Zn -1.433438 2.302714 8.221271
O 2.392040 0.578751 8.575197
O -1.433438 2.302714 6.175702
Zn 2.392040 0.578751 10.620767
Zn -1.433438 2.302714 13.020262
O 2.392040 0.578751 13.374188
O -1.433438 2.302714 10.974693
Zn 0.212321 3.460216 1.022785
Zn -3.613157 5.184179 3.422280
O 0.212321 3.460216 3.776206
O -3.613157 5.184179 1.376711
Zn 0.212321 3.460216 5.821776
Zn -3.613157 5.184179 8.221271
O 0.212321 3.460216 8.575197
O -3.613157 5.184179 6.175702
Zn 0.212321 3.460216 10.620767
Zn -3.613157 5.184179 13.020262
O 0.212321 3.460216 13.374188
O -3.613157 5.184179 10.974693
Zn -1.967398 6.341681 1.022785
Zn -5.792877 8.065644 3.422280
O -1.967398 6.341681 3.776206
O -5.792877 8.065644 1.376711
Zn -1.967398 6.341681 5.821776
Zn -5.792877 8.065644 8.221271
O -1.967398 6.341681 8.575197
O -5.792877 8.065644 6.175702
Zn -1.967398 6.341681 10.620767
Zn -5.792877 8.065644 13.020262
O -1.967398 6.341681 13.374188
O -5.792877 8.065644 10.974693
Zn 5.530362 0.578751 1.022785
Zn 1.704884 2.302714 3.422280
O 5.530362 0.578751 3.776206
O 1.704884 2.302714 1.376711
Zn 5.530362 0.578751 5.821776
Zn 1.704884 2.302714 8.221271
O 5.530362 0.578751 8.575197
O 1.704884 2.302714 6.175702
Zn 5.530362 0.578751 10.620767
Zn 1.704884 2.302714 13.020262
O 5.530362 0.578751 13.374188
O 1.704884 2.302714 10.974693
Zn 3.350643 3.460216 1.022785
Zn -0.474835 5.184179 3.422280
O 3.350643 3.460216 3.776206
O -0.474835 5.184179 1.376711
Zn 3.350643 3.460216 5.821776
Zn -0.474835 5.184179 8.221271
O 3.350643 3.460216 8.575197
O -0.474835 5.184179 6.175702
Zn 3.350643 3.460216 10.620767
Zn -0.474835 5.184179 13.020262
O 3.350643 3.460216 13.374188
O -0.474835 5.184179 10.974693
Zn 1.170924 6.341681 1.022785
Zn -2.654555 8.065644 3.422280
O 1.170924 6.341681 3.776206
O -2.654555 8.065644 1.376711
Zn 1.170924 6.341681 5.821776
Zn -2.654555 8.065644 8.221271
O 1.170924 6.341681 8.575197
O -2.654555 8.065644 6.175702
Zn 1.170924 6.341681 10.620767
Zn -2.654555 8.065644 13.020262
O 1.170924 6.341681 13.374188
O -2.654555 8.065644 10.974693
Zn 8.668684 0.578751 1.022785
Zn 4.843206 2.302714 3.422280
O 8.668684 0.578751 3.776206
O 4.843206 2.302714 1.376711
Zn 8.668684 0.578751 5.821776
Zn 4.843206 2.302714 8.221271
O 8.668684 0.578751 8.575197
O 4.843206 2.302714 6.175702
Zn 8.668684 0.578751 10.620767
Zn 4.843206 2.302714 13.020262
O 8.668684 0.578751 13.374188
O 4.843206 2.302714 10.974693
Zn 6.488965 3.460216 1.022785
Zn 2.663486 5.184179 3.422280
O 6.488965 3.460216 3.776206
O 2.663486 5.184179 1.376711
Zn 6.488965 3.460216 5.821776
Zn 2.663486 5.184179 8.221271
O 6.488965 3.460216 8.575197
O 2.663486 5.184179 6.175702
Zn 6.488965 3.460216 10.620767
Zn 2.663486 5.184179 13.020262
O 6.488965 3.460216 13.374188
O 2.663486 5.184179 10.974693
Zn 4.309245 6.341681 1.022785
Zn 0.483767 8.065644 3.422280
O 4.309245 6.341681 3.776206
O 0.483767 8.065644 1.376711
Zn 4.309245 6.341681 5.821776
Zn 0.483767 8.065644 8.221271
O 4.309245 6.341681 8.575197
O 0.483767 8.065644 6.175702
Zn 4.309245 6.341681 10.620767
Zn 0.483767 8.065644 13.020262
O 4.309245 6.341681 13.374188
O 0.483767 8.065644 10.974693
