108
A
Zn 2.311406 0.675977 4.517538
Zn -1.921466 2.262952 6.742926
O 2.311406 0.675977 6.609402
O -1.921466 2.262952 8.834790
Zn 2.311406 0.675977 8.968314
Zn -1.921466 2.262952 11.193702
O 2.311406 0.675977 11.060178
O -1.921466 2.262952 13.285566
Zn 2.311406 0.675977 13.419090
Zn -1.921466 2.262952 15.644478
O 2.311406 0.675977 15.510954
O -1.921466 2.262952 17.736342
Zn -0.342068 3.614907 8.968314
Zn -4.574939 5.201882 11.193702
O -0.342068 3.614907 11.060178
O -4.574939 5.201882 13.285566
Zn -0.342068 3.614907 13.419090
Zn -4.574939 5.201882 15.644478
O -0.342068 3.614907 15.510954
O -4.574939 5.201882 17.736342
Zn -0.342068 3.614907 17.869866
Zn -4.574939 5.201882 20.095254
O -0.342068 3.614907 19.961730
O -4.574939 5.201882 22.187118
Zn -2.995542 6.553836 13.419090
Zn -7.228413 8.140811 15.644478
O -2.995542 6.553836 15.510954
O -7.228413 8.140811 17.736342
Zn -2.995542 6.553836 17.869866
Zn -7.228413 8.140811 20.095254
O -2.995542 6.553836 19.961730
O -7.228413 8.140811 22.187118
Zn -2.995542 6.553836 22.320642
Zn -7.228413 8.140811 24.546030
O -2.995542 6.553836 24.412506
O -7.228413 8.140811 26.637894
Zn 5.354819 0.675977 8.968314
Zn 1.121948 2.262952 11.193702
O 5.354819 0.675977 11.060178
O 1.121948 2.262952 13.285566
Zn 5.354819 0.675977 13.419090
Zn 1.121948 2.262952 15.644478
O 5.354819 0.675977 15.510954
O 1.121948 2.262952 17.736342
Zn 5.354819 0.675977 17.869866
Zn 1.121948 2.262952 20.095254
O 5.354819 0.675977 19.961730
O 1.121948 2.262952 22.187118
Zn 2.701346 3.614907 13.419090
Zn -1.531526 5.201882 15.644478
O 2.701346 3.614907 15.510954
O -1.531526 5.201882 17.736342
Zn 2.701346 3.614907 17.869866
Zn -1.531526 5.201882 20.095254
O 2.701346 3.614907 19.961730
O -1.531526 5.201882 22.187118
Zn 2.701346 3.614907 22.320642
Zn -1.531526 5.201882 24.546030
O 2.701346 3.614907 24.412506
O -1.531526 5.201882 26.637894
Zn 0.047872 6.553836 17.869866
Zn -4.184999 8.140811 20.095254
O 0.047872 6.553836 19.961730
O -4.184999 8.140811 22.187118
Zn 0.047872 6.553836 22.320642
Zn -4.184999 8.140811 24.546030
O 0.047872 6.553836 24.412506
O -4.184999 8.140811 26.637894
Zn 0.047872 6.553836 26.771418
Zn -4.184999 8.140811 28.996806
O 0.047872 6.553836 28.863282
O -4.184999 8.140811 31.088670
Zn 8.398233 0.675977 13.419090
Zn 4.165362 2.262952 15.644478
O 8.398233 0.675977 15.510954
O 4.165362 2.262952 17.736342
Zn 8.398233 0.675977 17.869866
Zn 4.165362 2.262952 20.095254
O 8.398233 0.675977 19.961730
O 4.165362 2.262952 22.187118
Zn 8.398233 0.675977 22.320642
Zn 4.165362 2.262952 24.546030
O 8.398233 0.675977 24.412506
O 4.165362 2.262952 26.637894
Zn 5.744759 3.614907 17.869866
Zn 1.511888 5.201882 20.095254
O 5.744759 3.614907 19.961730
O 1.511888 5.201882 22.187118
Zn 5.744759 3.614907 22.320642
Zn 1.511888 5.201882 24.546030
O 5.744759 3.614907 24.412506
O 1.511888 5.201882 26.637894
Zn 5.744759 3.614907 26.771418
Zn 1.511888 5.201882 28.996806
O 5.744759 3.614907 28.863282
O 1.511888 5.201882 31.088670
Zn 3.091286 6.553836 22.320642
Zn -1.141586 8.140811 24.546030
O 3.091286 6.553836 24.412506
O -1.141586 8.140811 26.637894
Zn 3.091286 6.553836 26.771418
Zn -1.141586 8.140811 28.996806
O 3.091286 6.553836 28.863282
O -1.141586 8.140811 31.088670
Zn 3.091286 6.553836 31.222194
Zn -1.141586 8.140811 33.447582
O 3.091286 6.553836 33.314058
O -1.141586 8.140811 35.539446
