108
A
Zn 2.368753 0.611708 1.032437
Zn -1.605121 2.289459 3.372239
O 2.368753 0.611708 3.647166
O -1.605121 2.289459 1.307364
Zn 2.368753 0.611708 5.712040
Zn -1.605121 2.289459 8.051842
O 2.368753 0.611708 8.326769
O -1.605121 2.289459 5.986967
Zn 2.368753 0.611708 10.391643
Zn -1.605121 2.289459 12.731445
O 2.368753 0.611708 13.006372
O -1.605121 2.289459 10.666570
Zn 0.026604 3.512875 1.032437
Zn -3.947270 5.190626 3.372239
O 0.026604 3.512875 3.647166
O -3.947270 5.190626 1.307364
Zn 0.026604 3.512875 5.712040
Zn -3.947270 5.190626 8.051842
O 0.026604 3.512875 8.326769
O -3.947270 5.190626 5.986967
Zn 0.026604 3.512875 10.391643
Zn -3.947270 5.190626 12.731445
O 0.026604 3.512875 13.006372
O -3.947270 5.190626 10.666570
Zn -2.315546 6.414043 1.032437
Zn -6.289419 8.091793 3.372239
O -2.315546 6.414043 3.647166
O -6.289419 8.091793 1.307364
Zn -2.315546 6.414043 5.712040
Zn -6.289419 8.091793 8.051842
O -2.315546 6.414043 8.326769
O -6.289419 8.091793 5.986967
Zn -2.315546 6.414043 10.391643
Zn -6.289419 8.091793 12.731445
O -2.315546 6.414043 13.006372
O -6.289419 8.091793 10.666570
Zn 5.474535 0.611708 1.032437
Zn 1.500661 2.289459 3.372239
O 5.474535 0.611708 3.647166
O 1.500661 2.289459 1.307364
Zn 5.474535 0.611708 5.712040
Zn 1.500661 2.289459 8.051842
O 5.474535 0.611708 8.326769
O 1.500661 2.289459 5.986967
Zn 5.474535 0.611708 10.391643
Zn 1.500661 2.289459 12.731445
O 5.474535 0.611708 13.006372
O 1.500661 2.289459 10.666570
Zn 3.132386 3.512875 1.032437
Zn -0.841488 5.190626 3.372239
O 3.132386 3.512875 3.647166
O -0.841488 5.190626 1.307364
Zn 3.132386 3.512875 5.712040
Zn -0.841488 5.190626 8.051842
O 3.132386 3.512875 8.326769
O -0.841488 5.190626 5.986967
Zn 3.132386 3.512875 10.391643
Zn -0.841488 5.190626 12.731445
O 3.132386 3.512875 13.006372
O -0.841488 5.190626 10.666570
Zn 0.790236 6.414043 1.032437
Zn -3.183637 8.091793 3.372239
O 0.790236 6.414043 3.647166
O -3.183637 8.091793 1.307364
Zn 0.790236 6.414043 5.712040
Zn -3.183637 8.091793 8.051842
O 0.790236 6.414043 8.326769
O -3.183637 8.091793 5.986967
Zn 0.790236 6.414043 10.391643
Zn -3.183637 8.091793 12.731445
O 0.790236 6.414043 13.006372
O -3.183637 8.091793 10.666570
Zn 8.580317 0.611708 1.032437
Zn 4.606443 2.289459 3.372239
O 8.580317 0.611708 3.647166
O 4.606443 2.289459 1.307364
Zn 8.580317 0.611708 5.712040
Zn 4.606443 2.289459 8.051842
O 8.580317 0.611708 8.326769
O 4.606443 2.289459 5.986967
Zn 8.580317 0.611708 10.391643
Zn 4.606443 2.289459 12.731445
O 8.580317 0.611708 13.006372
O 4.606443 2.289459 10.666570
Zn 6.238167 3.512875 1.032437
Zn 2.264294 5.190626 3.372239
O 6.238167 3.512875 3.647166
O 2.264294 5.190626 1.307364
Zn 6.238167 3.512875 5.712040
Zn 2.264294 5.190626 8.051842
O 6.238167 3.512875 8.326769
O 2.264294 5.190626 5.986967
Zn 6.238167 3.512875 10.391643
Zn 2.264294 5.190626 12.731445
O 6.238167 3.512875 13.006372
O 2.264294 5.190626 10.666570
Zn 3.896018 6.414043 1.032437
Zn -0.077856 8.091793 3.372239
O 3.896018 6.414043 3.647166
O -0.077856 8.091793 1.307364
Zn 3.896018 6.414043 5.712040
Zn -0.077856 8.091793 8.051842
O 3.896018 6.414043 8.326769
O -0.077856 8.091793 5.986967
Zn 3.896018 6.414043 10.391643
Zn -0.077856 8.091793 12.731445
O 3.896018 6.414043 13.006372
O -0.077856 8.091793 10.666570
