108
A
Zn 2.431147 0.495434 0.989561
Zn -0.968872 2.335134 3.543266
O 2.431147 0.495434 4.117849
O -0.968872 2.335134 1.564144
Zn 2.431147 0.495434 6.096971
Zn -0.968872 2.335134 8.650676
O 2.431147 0.495434 9.225259
O -0.968872 2.335134 6.671554
Zn 2.431147 0.495434 11.204381
Zn -0.968872 2.335134 13.758086
O 2.431147 0.495434 14.332669
O -0.968872 2.335134 11.778964
Zn 0.671039 3.326002 0.989561
Zn -2.728981 5.165702 3.543266
O 0.671039 3.326002 4.117849
O -2.728981 5.165702 1.564144
Zn 0.671039 3.326002 6.096971
Zn -2.728981 5.165702 8.650676
O 0.671039 3.326002 9.225259
O -2.728981 5.165702 6.671554
Zn 0.671039 3.326002 11.204381
Zn -2.728981 5.165702 13.758086
O 0.671039 3.326002 14.332669
O -2.728981 5.165702 11.778964
Zn -1.089069 6.156570 0.989561
Zn -4.489089 7.996270 3.543266
O -1.089069 6.156570 4.117849
O -4.489089 7.996270 1.564144
Zn -1.089069 6.156570 6.096971
Zn -4.489089 7.996270 8.650676
O -1.089069 6.156570 9.225259
O -4.489089 7.996270 6.671554
Zn -1.089069 6.156570 11.204381
Zn -4.489089 7.996270 13.758086
O -1.089069 6.156570 14.332669
O -4.489089 7.996270 11.778964
Zn 5.653531 0.495434 0.989561
Zn 2.253511 2.335134 3.543266
O 5.653531 0.495434 4.117849
O 2.253511 2.335134 1.564144
Zn 5.653531 0.495434 6.096971
Zn 2.253511 2.335134 8.650676
O 5.653531 0.495434 9.225259
O 2.253511 2.335134 6.671554
Zn 5.653531 0.495434 11.204381
Zn 2.253511 2.335134 13.758086
O 5.653531 0.495434 14.332669
O 2.253511 2.335134 11.778964
Zn 3.893422 3.326002 0.989561
Zn 0.493403 5.165702 3.543266
O 3.893422 3.326002 4.117849
O 0.493403 5.165702 1.564144
Zn 3.893422 3.326002 6.096971
Zn 0.493403 5.165702 8.650676
O 3.893422 3.326002 9.225259
O 0.493403 5.165702 6.671554
Zn 3.893422 3.326002 11.204381
Zn 0.493403 5.165702 13.758086
O 3.893422 3.326002 14.332669
O 0.493403 5.165702 11.778964
Zn 2.133314 6.156570 0.989561
Zn -1.266706 7.996270 3.543266
O 2.133314 6.156570 4.117849
O -1.266706 7.996270 1.564144
Zn 2.133314 6.156570 6.096971
Zn -1.266706 7.996270 8.650676
O 2.133314 6.156570 9.225259
O -1.266706 7.996270 6.671554
Zn 2.133314 6.156570 11.204381
Zn -1.266706 7.996270 13.758086
O 2.133314 6.156570 14.332669
O -1.266706 7.996270 11.778964
Zn 8.875914 0.495434 0.989561
Zn 5.475894 2.335134 3.543266
O 8.875914 0.495434 4.117849
O 5.475894 2.335134 1.564144
Zn 8.875914 0.495434 6.096971
Zn 5.475894 2.335134 8.650676
O 8.875914 0.495434 9.225259
O 5.475894 2.335134 6.671554
Zn 8.875914 0.495434 11.204381
Zn 5.475894 2.335134 13.758086
O 8.875914 0.495434 14.332669
O 5.475894 2.335134 11.778964
Zn 7.115806 3.326002 0.989561
Zn 3.715786 5.165702 3.543266
O 7.115806 3.326002 4.117849
O 3.715786 5.165702 1.564144
Zn 7.115806 3.326002 6.096971
Zn 3.715786 5.165702 8.650676
O 7.115806 3.326002 9.225259
O 3.715786 5.165702 6.671554
Zn 7.115806 3.326002 11.204381
Zn 3.715786 5.165702 13.758086
O 7.115806 3.326002 14.332669
O 3.715786 5.165702 11.778964
Zn 5.355697 6.156570 0.989561
Zn 1.955678 7.996270 3.543266
O 5.355697 6.156570 4.117849
O 1.955678 7.996270 1.564144
Zn 5.355697 6.156570 6.096971
Zn 1.955678 7.996270 8.650676
O 5.355697 6.156570 9.225259
O 1.955678 7.996270 6.671554
Zn 5.355697 6.156570 11.204381
Zn 1.955678 7.996270 13.758086
O 5.355697 6.156570 14.332669
O 1.955678 7.996270 11.778964
