108
A
Zn 2.407972 0.551587 1.013373
Zn -1.286895 2.313459 3.462614
O 2.407972 0.551587 3.885108
O -1.286895 2.313459 1.435867
Zn 2.407972 0.551587 5.911854
Zn -1.286895 2.313459 8.361095
O 2.407972 0.551587 8.783589
O -1.286895 2.313459 6.334348
Zn 2.407972 0.551587 10.810335
Zn -1.286895 2.313459 13.259576
O 2.407972 0.551587 13.682070
O -1.286895 2.313459 11.232829
Zn 0.363611 3.416634 1.013373
Zn -3.331256 5.178506 3.462614
O 0.363611 3.416634 3.885108
O -3.331256 5.178506 1.435867
Zn 0.363611 3.416634 5.911854
Zn -3.331256 5.178506 8.361095
O 0.363611 3.416634 8.783589
O -3.331256 5.178506 6.334348
Zn 0.363611 3.416634 10.810335
Zn -3.331256 5.178506 13.259576
O 0.363611 3.416634 13.682070
O -3.331256 5.178506 11.232829
Zn -1.680750 6.281681 1.013373
Zn -5.375617 8.043553 3.462614
O -1.680750 6.281681 3.885108
O -5.375617 8.043553 1.435867
Zn -1.680750 6.281681 5.911854
Zn -5.375617 8.043553 8.361095
O -1.680750 6.281681 8.783589
O -5.375617 8.043553 6.334348
Zn -1.680750 6.281681 10.810335
Zn -5.375617 8.043553 13.259576
O -1.680750 6.281681 13.682070
O -5.375617 8.043553 11.232829
Zn 5.573411 0.551587 1.013373
Zn 1.878544 2.313459 3.462614
O 5.573411 0.551587 3.885108
O 1.878544 2.313459 1.435867
Zn 5.573411 0.551587 5.911854
Zn 1.878544 2.313459 8.361095
O 5.573411 0.551587 8.783589
O 1.878544 2.313459 6.334348
Zn 5.573411 0.551587 10.810335
Zn 1.878544 2.313459 13.259576
O 5.573411 0.551587 13.682070
O 1.878544 2.313459 11.232829
Zn 3.529050 3.416634 1.013373
Zn -0.165817 5.178506 3.462614
O 3.529050 3.416634 3.885108
O -0.165817 5.178506 1.435867
Zn 3.529050 3.416634 5.911854
Zn -0.165817 5.178506 8.361095
O 3.529050 3.416634 8.783589
O -0.165817 5.178506 6.334348
Zn 3.529050 3.416634 10.810335
Zn -0.165817 5.178506 13.259576
O 3.529050 3.416634 13.682070
O -0.165817 5.178506 11.232829
Zn 1.484689 6.281681 1.013373
Zn -2.210178 8.043553 3.462614
O 1.484689 6.281681 3.885108
O -2.210178 8.043553 1.435867
Zn 1.484689 6.281681 5.911854
Zn -2.210178 8.043553 8.361095
O 1.484689 6.281681 8.783589
O -2.210178 8.043553 6.334348
Zn 1.484689 6.281681 10.810335
Zn -2.210178 8.043553 13.259576
O 1.484689 6.281681 13.682070
O -2.210178 8.043553 11.232829
Zn 8.738849 0.551587 1.013373
Zn 5.043982 2.313459 3.462614
O 8.738849 0.551587 3.885108
O 5.043982 2.313459 1.435867
Zn 8.738849 0.551587 5.911854
Zn 5.043982 2.313459 8.361095
O 8.738849 0.551587 8.783589
O 5.043982 2.313459 6.334348
Zn 8.738849 0.551587 10.810335
Zn 5.043982 2.313459 13.259576
O 8.738849 0.551587 13.682070
O 5.043982 2.313459 11.232829
Zn 6.694488 3.416634 1.013373
Zn 2.999621 5.178506 3.462614
O 6.694488 3.416634 3.885108
O 2.999621 5.178506 1.435867
Zn 6.694488 3.416634 5.911854
Zn 2.999621 5.178506 8.361095
O 6.694488 3.416634 8.783589
O 2.999621 5.178506 6.334348
Zn 6.694488 3.416634 10.810335
Zn 2.999621 5.178506 13.259576
O 6.694488 3.416634 13.682070
O 2.999621 5.178506 11.232829
Zn 4.650127 6.281681 1.013373
Zn 0.955260 8.043553 3.462614
O 4.650127 6.281681 3.885108
O 0.955260 8.043553 1.435867
Zn 4.650127 6.281681 5.911854
Zn 0.955260 8.043553 8.361095
O 4.650127 6.281681 8.783589
O 0.955260 8.043553 6.334348
Zn 4.650127 6.281681 10.810335
Zn 0.955260 8.043553 13.259576
O 4.650127 6.281681 13.682070
O 0.955260 8.043553 11.232829
