108
A
Zn 2.380965 0.595180 1.027835
Zn -1.519848 2.296136 3.397484
O 2.380965 0.595180 3.711462
O -1.519848 2.296136 1.341813
Zn 2.380965 0.595180 5.767132
Zn -1.519848 2.296136 8.136781
O 2.380965 0.595180 8.450759
O -1.519848 2.296136 6.081110
Zn 2.380965 0.595180 10.506429
Zn -1.519848 2.296136 12.876078
O 2.380965 0.595180 13.190056
O -1.519848 2.296136 10.820407
Zn 0.120031 3.486496 1.027835
Zn -3.780782 5.187452 3.397484
O 0.120031 3.486496 3.711462
O -3.780782 5.187452 1.341813
Zn 0.120031 3.486496 5.767132
Zn -3.780782 5.187452 8.136781
O 0.120031 3.486496 8.450759
O -3.780782 5.187452 6.081110
Zn 0.120031 3.486496 10.506429
Zn -3.780782 5.187452 12.876078
O 0.120031 3.486496 13.190056
O -3.780782 5.187452 10.820407
Zn -2.140903 6.377813 1.027835
Zn -6.041717 8.078768 3.397484
O -2.140903 6.377813 3.711462
O -6.041717 8.078768 1.341813
Zn -2.140903 6.377813 5.767132
Zn -6.041717 8.078768 8.136781
O -2.140903 6.377813 8.450759
O -6.041717 8.078768 6.081110
Zn -2.140903 6.377813 10.506429
Zn -6.041717 8.078768 12.876078
O -2.140903 6.377813 13.190056
O -6.041717 8.078768 10.820407
Zn 5.503017 0.595180 1.027835
Zn 1.602204 2.296136 3.397484
O 5.503017 0.595180 3.711462
O 1.602204 2.296136 1.341813
Zn 5.503017 0.595180 5.767132
Zn 1.602204 2.296136 8.136781
O 5.503017 0.595180 8.450759
O 1.602204 2.296136 6.081110
Zn 5.503017 0.595180 10.506429
Zn 1.602204 2.296136 12.876078
O 5.503017 0.595180 13.190056
O 1.602204 2.296136 10.820407
Zn 3.242083 3.486496 1.027835
Zn -0.658730 5.187452 3.397484
O 3.242083 3.486496 3.711462
O -0.658730 5.187452 1.341813
Zn 3.242083 3.486496 5.767132
Zn -0.658730 5.187452 8.136781
O 3.242083 3.486496 8.450759
O -0.658730 5.187452 6.081110
Zn 3.242083 3.486496 10.506429
Zn -0.658730 5.187452 12.876078
O 3.242083 3.486496 13.190056
O -0.658730 5.187452 10.820407
Zn 0.981148 6.377813 1.027835
Zn -2.919665 8.078768 3.397484
O 0.981148 6.377813 3.711462
O -2.919665 8.078768 1.341813
Zn 0.981148 6.377813 5.767132
Zn -2.919665 8.078768 8.136781
O 0.981148 6.377813 8.450759
O -2.919665 8.078768 6.081110
Zn 0.981148 6.377813 10.506429
Zn -2.919665 8.078768 12.876078
O 0.981148 6.377813 13.190056
O -2.919665 8.078768 10.820407
Zn 8.625069 0.595180 1.027835
Zn 4.724256 2.296136 3.397484
O 8.625069 0.595180 3.711462
O 4.724256 2.296136 1.341813
Zn 8.625069 0.595180 5.767132
Zn 4.724256 2.296136 8.136781
O 8.625069 0.595180 8.450759
O 4.724256 2.296136 6.081110
Zn 8.625069 0.595180 10.506429
Zn 4.724256 2.296136 12.876078
O 8.625069 0.595180 13.190056
O 4.724256 2.296136 10.820407
Zn 6.364135 3.486496 1.027835
Zn 2.463322 5.187452 3.397484
O 6.364135 3.486496 3.711462
O 2.463322 5.187452 1.341813
Zn 6.364135 3.486496 5.767132
Zn 2.463322 5.187452 8.136781
O 6.364135 3.486496 8.450759
O 2.463322 5.187452 6.081110
Zn 6.364135 3.486496 10.506429
Zn 2.463322 5.187452 12.876078
O 6.364135 3.486496 13.190056
O 2.463322 5.187452 10.820407
Zn 4.103200 6.377813 1.027835
Zn 0.202387 8.078768 3.397484
O 4.103200 6.377813 3.711462
O 0.202387 8.078768 1.341813
Zn 4.103200 6.377813 5.767132
Zn 0.202387 8.078768 8.136781
O 4.103200 6.377813 8.450759
O 0.202387 8.078768 6.081110
Zn 4.103200 6.377813 10.506429
Zn 0.202387 8.078768 12.876078
O 4.103200 6.377813 13.190056
O 0.202387 8.078768 10.820407
