108
A
Zn 2.428690 0.503382 0.993298
Zn -1.015157 2.332111 3.532080
O 2.428690 0.503382 4.084265
O -1.015157 2.332111 1.545483
Zn 2.428690 0.503382 6.070861
Zn -1.015157 2.332111 8.609643
O 2.428690 0.503382 9.161828
O -1.015157 2.332111 6.623046
Zn 2.428690 0.503382 11.148424
Zn -1.015157 2.332111 13.687206
O 2.428690 0.503382 14.239391
O -1.015157 2.332111 11.700609
Zn 0.627974 3.338876 0.993298
Zn -2.815873 5.167605 3.532080
O 0.627974 3.338876 4.084265
O -2.815873 5.167605 1.545483
Zn 0.627974 3.338876 6.070861
Zn -2.815873 5.167605 8.609643
O 0.627974 3.338876 9.161828
O -2.815873 5.167605 6.623046
Zn 0.627974 3.338876 11.148424
Zn -2.815873 5.167605 13.687206
O 0.627974 3.338876 14.239391
O -2.815873 5.167605 11.700609
Zn -1.172742 6.174369 0.993298
Zn -4.616589 8.003098 3.532080
O -1.172742 6.174369 4.084265
O -4.616589 8.003098 1.545483
Zn -1.172742 6.174369 6.070861
Zn -4.616589 8.003098 8.609643
O -1.172742 6.174369 9.161828
O -4.616589 8.003098 6.623046
Zn -1.172742 6.174369 11.148424
Zn -4.616589 8.003098 13.687206
O -1.172742 6.174369 14.239391
O -4.616589 8.003098 11.700609
Zn 5.642938 0.503382 0.993298
Zn 2.199091 2.332111 3.532080
O 5.642938 0.503382 4.084265
O 2.199091 2.332111 1.545483
Zn 5.642938 0.503382 6.070861
Zn 2.199091 2.332111 8.609643
O 5.642938 0.503382 9.161828
O 2.199091 2.332111 6.623046
Zn 5.642938 0.503382 11.148424
Zn 2.199091 2.332111 13.687206
O 5.642938 0.503382 14.239391
O 2.199091 2.332111 11.700609
Zn 3.842222 3.338876 0.993298
Zn 0.398375 5.167605 3.532080
O 3.842222 3.338876 4.084265
O 0.398375 5.167605 1.545483
Zn 3.842222 3.338876 6.070861
Zn 0.398375 5.167605 8.609643
O 3.842222 3.338876 9.161828
O 0.398375 5.167605 6.623046
Zn 3.842222 3.338876 11.148424
Zn 0.398375 5.167605 13.687206
O 3.842222 3.338876 14.239391
O 0.398375 5.167605 11.700609
Zn 2.041506 6.174369 0.993298
Zn -1.402340 8.003098 3.532080
O 2.041506 6.174369 4.084265
O -1.402340 8.003098 1.545483
Zn 2.041506 6.174369 6.070861
Zn -1.402340 8.003098 8.609643
O 2.041506 6.174369 9.161828
O -1.402340 8.003098 6.623046
Zn 2.041506 6.174369 11.148424
Zn -1.402340 8.003098 13.687206
O 2.041506 6.174369 14.239391
O -1.402340 8.003098 11.700609
Zn 8.857186 0.503382 0.993298
Zn 5.413340 2.332111 3.532080
O 8.857186 0.503382 4.084265
O 5.413340 2.332111 1.545483
Zn 8.857186 0.503382 6.070861
Zn 5.413340 2.332111 8.609643
O 8.857186 0.503382 9.161828
O 5.413340 2.332111 6.623046
Zn 8.857186 0.503382 11.148424
Zn 5.413340 2.332111 13.687206
O 8.857186 0.503382 14.239391
O 5.413340 2.332111 11.700609
Zn 7.056470 3.338876 0.993298
Zn 3.612624 5.167605 3.532080
O 7.056470 3.338876 4.084265
O 3.612624 5.167605 1.545483
Zn 7.056470 3.338876 6.070861
Zn 3.612624 5.167605 8.609643
O 7.056470 3.338876 9.161828
O 3.612624 5.167605 6.623046
Zn 7.056470 3.338876 11.148424
Zn 3.612624 5.167605 13.687206
O 7.056470 3.338876 14.239391
O 3.612624 5.167605 11.700609
Zn 5.255755 6.174369 0.993298
Zn 1.811908 8.003098 3.532080
O 5.255755 6.174369 4.084265
O 1.811908 8.003098 1.545483
Zn 5.255755 6.174369 6.070861
Zn 1.811908 8.003098 8.609643
O 5.255755 6.174369 9.161828
O 1.811908 8.003098 6.623046
Zn 5.255755 6.174369 11.148424
Zn 1.811908 8.003098 13.687206
O 5.255755 6.174369 14.239391
O 1.811908 8.003098 11.700609
