108
A
Zn 2.271601 0.712943 1.050650
Zn -2.092878 2.247330 3.211369
O 2.271601 0.712943 3.270789
O -2.092878 2.247330 1.110070
Zn 2.271601 0.712943 5.372089
Zn -2.092878 2.247330 7.532808
O 2.271601 0.712943 7.592228
O -2.092878 2.247330 5.431509
Zn 2.271601 0.712943 9.693528
Zn -2.092878 2.247330 11.854247
O 2.271601 0.712943 11.913667
O -2.092878 2.247330 9.752948
Zn -0.557839 3.673217 1.050650
Zn -4.922318 5.207604 3.211369
O -0.557839 3.673217 3.270789
O -4.922318 5.207604 1.110070
Zn -0.557839 3.673217 5.372089
Zn -4.922318 5.207604 7.532808
O -0.557839 3.673217 7.592228
O -4.922318 5.207604 5.431509
Zn -0.557839 3.673217 9.693528
Zn -4.922318 5.207604 11.854247
O -0.557839 3.673217 11.913667
O -4.922318 5.207604 9.752948
Zn -3.387278 6.633490 1.050650
Zn -7.751757 8.167877 3.211369
O -3.387278 6.633490 3.270789
O -7.751757 8.167877 1.110070
Zn -3.387278 6.633490 5.372089
Zn -7.751757 8.167877 7.532808
O -3.387278 6.633490 7.592228
O -7.751757 8.167877 5.431509
Zn -3.387278 6.633490 9.693528
Zn -7.751757 8.167877 11.854247
O -3.387278 6.633490 11.913667
O -7.751757 8.167877 9.752948
Zn 5.279763 0.712943 1.050650
Zn 0.915284 2.247330 3.211369
O 5.279763 0.712943 3.270789
O 0.915284 2.247330 1.110070
Zn 5.279763 0.712943 5.372089
Zn 0.915284 2.247330 7.532808
O 5.279763 0.712943 7.592228
O 0.915284 2.247330 5.431509
Zn 5.279763 0.712943 9.693528
Zn 0.915284 2.247330 11.854247
O 5.279763 0.712943 11.913667
O 0.915284 2.247330 9.752948
Zn 2.450323 3.673217 1.050650
Zn -1.914156 5.207604 3.211369
O 2.450323 3.673217 3.270789
O -1.914156 5.207604 1.110070
Zn 2.450323 3.673217 5.372089
Zn -1.914156 5.207604 7.532808
O 2.450323 3.673217 7.592228
O -1.914156 5.207604 5.431509
Zn 2.450323 3.673217 9.693528
Zn -1.914156 5.207604 11.854247
O 2.450323 3.673217 11.913667
O -1.914156 5.207604 9.752948
Zn -0.379116 6.633490 1.050650
Zn -4.743595 8.167877 3.211369
O -0.379116 6.633490 3.270789
O -4.743595 8.167877 1.110070
Zn -0.379116 6.633490 5.372089
Zn -4.743595 8.167877 7.532808
O -0.379116 6.633490 7.592228
O -4.743595 8.167877 5.431509
Zn -0.379116 6.633490 9.693528
Zn -4.743595 8.167877 11.854247
O -0.379116 6.633490 11.913667
O -4.743595 8.167877 9.752948
Zn 8.287925 0.712943 1.050650
Zn 3.923446 2.247330 3.211369
O 8.287925 0.712943 3.270789
O 3.923446 2.247330 1.110070
Zn 8.287925 0.712943 5.372089
Zn 3.923446 2.247330 7.532808
O 8.287925 0.712943 7.592228
O 3.923446 2.247330 5.431509
Zn 8.287925 0.712943 9.693528
Zn 3.923446 2.247330 11.854247
O 8.287925 0.712943 11.913667
O 3.923446 2.247330 9.752948
Zn 5.458485 3.673217 1.050650
Zn 1.094006 5.207604 3.211369
O 5.458485 3.673217 3.270789
O 1.094006 5.207604 1.110070
Zn 5.458485 3.673217 5.372089
Zn 1.094006 5.207604 7.532808
O 5.458485 3.673217 7.592228
O 1.094006 5.207604 5.431509
Zn 5.458485 3.673217 9.693528
Zn 1.094006 5.207604 11.854247
O 5.458485 3.673217 11.913667
O 1.094006 5.207604 9.752948
Zn 2.629046 6.633490 1.050650
Zn -1.735433 8.167877 3.211369
O 2.629046 6.633490 3.270789
O -1.735433 8.167877 1.110070
Zn 2.629046 6.633490 5.372089
Zn -1.735433 8.167877 7.532808
O 2.629046 6.633490 7.592228
O -1.735433 8.167877 5.431509
Zn 2.629046 6.633490 9.693528
Zn -1.735433 8.167877 11.854247
O 2.629046 6.633490 11.913667
O -1.735433 8.167877 9.752948
