108
A
Zn 2.414754 0.538108 5.177081
Zn -1.212439 2.318729 7.651194
O 2.414754 0.538108 7.193484
O -1.212439 2.318729 9.667597
Zn 2.414754 0.538108 10.125307
Zn -1.212439 2.318729 12.599420
O 2.414754 0.538108 12.141710
O -1.212439 2.318729 14.615823
Zn 2.414754 0.538108 15.073533
Zn -1.212439 2.318729 17.547646
O 2.414754 0.538108 17.089936
O -1.212439 2.318729 19.564049
Zn 0.438072 3.394946 10.125307
Zn -3.189120 5.175567 12.599420
O 0.438072 3.394946 12.141710
O -3.189120 5.175567 14.615823
Zn 0.438072 3.394946 15.073533
Zn -3.189120 5.175567 17.547646
O 0.438072 3.394946 17.089936
O -3.189120 5.175567 19.564049
Zn 0.438072 3.394946 20.021759
Zn -3.189120 5.175567 22.495872
O 0.438072 3.394946 22.038162
O -3.189120 5.175567 24.512275
Zn -1.538610 6.251783 15.073533
Zn -5.165802 8.032404 17.547646
O -1.538610 6.251783 17.089936
O -5.165802 8.032404 19.564049
Zn -1.538610 6.251783 20.021759
Zn -5.165802 8.032404 22.495872
O -1.538610 6.251783 22.038162
O -5.165802 8.032404 24.512275
Zn -1.538610 6.251783 24.969985
Zn -5.165802 8.032404 27.444098
O -1.538610 6.251783 26.986388
O -5.165802 8.032404 29.460501
Zn 5.593750 0.538108 10.125307
Zn 1.966558 2.318729 12.599420
O 5.593750 0.538108 12.141710
O 1.966558 2.318729 14.615823
Zn 5.593750 0.538108 15.073533
Zn 1.966558 2.318729 17.547646
O 5.593750 0.538108 17.089936
O 1.966558 2.318729 19.564049
Zn 5.593750 0.538108 20.021759
Zn 1.966558 2.318729 22.495872
O 5.593750 0.538108 22.038162
O 1.966558 2.318729 24.512275
Zn 3.617069 3.394946 15.073533
Zn -0.010124 5.175567 17.547646
O 3.617069 3.394946 17.089936
O -0.010124 5.175567 19.564049
Zn 3.617069 3.394946 20.021759
Zn -0.010124 5.175567 22.495872
O 3.617069 3.394946 22.038162
O -0.010124 5.175567 24.512275
Zn 3.617069 3.394946 24.969985
Zn -0.010124 5.175567 27.444098
O 3.617069 3.394946 26.986388
O -0.010124 5.175567 29.460501
Zn 1.640387 6.251783 20.021759
Zn -1.986805 8.032404 22.495872
O 1.640387 6.251783 22.038162
O -1.986805 8.032404 24.512275
Zn 1.640387 6.251783 24.969985
Zn -1.986805 8.032404 27.444098
O 1.640387 6.251783 26.986388
O -1.986805 8.032404 29.460501
Zn 1.640387 6.251783 29.918211
Zn -1.986805 8.032404 32.392324
O 1.640387 6.251783 31.934614
O -1.986805 8.032404 34.408727
Zn 8.772747 0.538108 15.073533
Zn 5.145555 2.318729 17.547646
O 8.772747 0.538108 17.089936
O 5.145555 2.318729 19.564049
Zn 8.772747 0.538108 20.021759
Zn 5.145555 2.318729 22.495872
O 8.772747 0.538108 22.038162
O 5.145555 2.318729 24.512275
Zn 8.772747 0.538108 24.969985
Zn 5.145555 2.318729 27.444098
O 8.772747 0.538108 26.986388
O 5.145555 2.318729 29.460501
Zn 6.796065 3.394946 20.021759
Zn 3.168873 5.175567 22.495872
O 6.796065 3.394946 22.038162
O 3.168873 5.175567 24.512275
Zn 6.796065 3.394946 24.969985
Zn 3.168873 5.175567 27.444098
O 6.796065 3.394946 26.986388
O 3.168873 5.175567 29.460501
Zn 6.796065 3.394946 29.918211
Zn 3.168873 5.175567 32.392324
O 6.796065 3.394946 31.934614
O 3.168873 5.175567 34.408727
Zn 4.819384 6.251783 24.969985
Zn 1.192191 8.032404 27.444098
O 4.819384 6.251783 26.986388
O 1.192191 8.032404 29.460501
Zn 4.819384 6.251783 29.918211
Zn 1.192191 8.032404 32.392324
O 4.819384 6.251783 31.934614
O 1.192191 8.032404 34.408727
Zn 4.819384 6.251783 34.866437
Zn 1.192191 8.032404 37.340550
O 4.819384 6.251783 36.882840
O 1.192191 8.032404 39.356953
