108
A
Zn 2.278072 0.707226 4.376610
Zn -2.066855 2.249764 6.547279
O 2.278072 0.707226 6.476732
O -2.066855 2.249764 8.647401
Zn 2.278072 0.707226 8.717947
Zn -2.066855 2.249764 10.888616
O 2.278072 0.707226 10.818069
O -2.066855 2.249764 12.988738
Zn 2.278072 0.707226 13.059284
Zn -2.066855 2.249764 15.229953
O 2.278072 0.707226 15.159406
O -2.066855 2.249764 17.330075
Zn -0.524296 3.664216 8.717947
Zn -4.869222 5.206753 10.888616
O -0.524296 3.664216 10.818069
O -4.869222 5.206753 12.988738
Zn -0.524296 3.664216 13.059284
Zn -4.869222 5.206753 15.229953
O -0.524296 3.664216 15.159406
O -4.869222 5.206753 17.330075
Zn -0.524296 3.664216 17.400621
Zn -4.869222 5.206753 19.571290
O -0.524296 3.664216 19.500743
O -4.869222 5.206753 21.671412
Zn -3.326664 6.621206 13.059284
Zn -7.671590 8.163743 15.229953
O -3.326664 6.621206 15.159406
O -7.671590 8.163743 17.330075
Zn -3.326664 6.621206 17.400621
Zn -7.671590 8.163743 19.571290
O -3.326664 6.621206 19.500743
O -7.671590 8.163743 21.671412
Zn -3.326664 6.621206 21.741958
Zn -7.671590 8.163743 23.912627
O -3.326664 6.621206 23.842080
O -7.671590 8.163743 26.012749
Zn 5.291657 0.707226 8.717947
Zn 0.946731 2.249764 10.888616
O 5.291657 0.707226 10.818069
O 0.946731 2.249764 12.988738
Zn 5.291657 0.707226 13.059284
Zn 0.946731 2.249764 15.229953
O 5.291657 0.707226 15.159406
O 0.946731 2.249764 17.330075
Zn 5.291657 0.707226 17.400621
Zn 0.946731 2.249764 19.571290
O 5.291657 0.707226 19.500743
O 0.946731 2.249764 21.671412
Zn 2.489290 3.664216 13.059284
Zn -1.855637 5.206753 15.229953
O 2.489290 3.664216 15.159406
O -1.855637 5.206753 17.330075
Zn 2.489290 3.664216 17.400621
Zn -1.855637 5.206753 19.571290
O 2.489290 3.664216 19.500743
O -1.855637 5.206753 21.671412
Zn 2.489290 3.664216 21.741958
Zn -1.855637 5.206753 23.912627
O 2.489290 3.664216 23.842080
O -1.855637 5.206753 26.012749
Zn -0.313078 6.621206 17.400621
Zn -4.658005 8.163743 19.571290
O -0.313078 6.621206 19.500743
O -4.658005 8.163743 21.671412
Zn -0.313078 6.621206 21.741958
Zn -4.658005 8.163743 23.912627
O -0.313078 6.621206 23.842080
O -4.658005 8.163743 26.012749
Zn -0.313078 6.621206 26.083295
Zn -4.658005 8.163743 28.253964
O -0.313078 6.621206 28.183417
O -4.658005 8.163743 30.354086
Zn 8.305243 0.707226 13.059284
Zn 3.960316 2.249764 15.229953
O 8.305243 0.707226 15.159406
O 3.960316 2.249764 17.330075
Zn 8.305243 0.707226 17.400621
Zn 3.960316 2.249764 19.571290
O 8.305243 0.707226 19.500743
O 3.960316 2.249764 21.671412
Zn 8.305243 0.707226 21.741958
Zn 3.960316 2.249764 23.912627
O 8.305243 0.707226 23.842080
O 3.960316 2.249764 26.012749
Zn 5.502875 3.664216 17.400621
Zn 1.157948 5.206753 19.571290
O 5.502875 3.664216 19.500743
O 1.157948 5.206753 21.671412
Zn 5.502875 3.664216 21.741958
Zn 1.157948 5.206753 23.912627
O 5.502875 3.664216 23.842080
O 1.157948 5.206753 26.012749
Zn 5.502875 3.664216 26.083295
Zn 1.157948 5.206753 28.253964
O 5.502875 3.664216 28.183417
O 1.157948 5.206753 30.354086
Zn 2.700507 6.621206 21.741958
Zn -1.644420 8.163743 23.912627
O 2.700507 6.621206 23.842080
O -1.644420 8.163743 26.012749
Zn 2.700507 6.621206 26.083295
Zn -1.644420 8.163743 28.253964
O 2.700507 6.621206 28.183417
O -1.644420 8.163743 30.354086
Zn 2.700507 6.621206 30.424632
Zn -1.644420 8.163743 32.595301
O 2.700507 6.621206 32.524754
O -1.644420 8.163743 34.695423
