108
A
Zn 2.325294 0.661883 1.043558
Zn -1.854116 2.268838 3.293819
O 2.325294 0.661883 3.456963
O -1.854116 2.268838 1.206702
Zn 2.325294 0.661883 5.544079
Zn -1.854116 2.268838 7.794340
O 2.325294 0.661883 7.957484
O -1.854116 2.268838 5.707223
Zn 2.325294 0.661883 10.044600
Zn -1.854116 2.268838 12.294861
O 2.325294 0.661883 12.458005
O -1.854116 2.268838 10.207744
Zn -0.260501 3.592603 1.043558
Zn -4.439911 5.199558 3.293819
O -0.260501 3.592603 3.456963
O -4.439911 5.199558 1.206702
Zn -0.260501 3.592603 5.544079
Zn -4.439911 5.199558 7.794340
O -0.260501 3.592603 7.957484
O -4.439911 5.199558 5.707223
Zn -0.260501 3.592603 10.044600
Zn -4.439911 5.199558 12.294861
O -0.260501 3.592603 12.458005
O -4.439911 5.199558 10.207744
Zn -2.846295 6.523323 1.043558
Zn -7.025705 8.130278 3.293819
O -2.846295 6.523323 3.456963
O -7.025705 8.130278 1.206702
Zn -2.846295 6.523323 5.544079
Zn -7.025705 8.130278 7.794340
O -2.846295 6.523323 7.957484
O -7.025705 8.130278 5.707223
Zn -2.846295 6.523323 10.044600
Zn -7.025705 8.130278 12.294861
O -2.846295 6.523323 12.458005
O -7.025705 8.130278 10.207744
Zn 5.382266 0.661883 1.043558
Zn 1.202856 2.268838 3.293819
O 5.382266 0.661883 3.456963
O 1.202856 2.268838 1.206702
Zn 5.382266 0.661883 5.544079
Zn 1.202856 2.268838 7.794340
O 5.382266 0.661883 7.957484
O 1.202856 2.268838 5.707223
Zn 5.382266 0.661883 10.044600
Zn 1.202856 2.268838 12.294861
O 5.382266 0.661883 12.458005
O 1.202856 2.268838 10.207744
Zn 2.796471 3.592603 1.043558
Zn -1.382939 5.199558 3.293819
O 2.796471 3.592603 3.456963
O -1.382939 5.199558 1.206702
Zn 2.796471 3.592603 5.544079
Zn -1.382939 5.199558 7.794340
O 2.796471 3.592603 7.957484
O -1.382939 5.199558 5.707223
Zn 2.796471 3.592603 10.044600
Zn -1.382939 5.199558 12.294861
O 2.796471 3.592603 12.458005
O -1.382939 5.199558 10.207744
Zn 0.210677 6.523323 1.043558
Zn -3.968733 8.130278 3.293819
O 0.210677 6.523323 3.456963
O -3.968733 8.130278 1.206702
Zn 0.210677 6.523323 5.544079
Zn -3.968733 8.130278 7.794340
O 0.210677 6.523323 7.957484
O -3.968733 8.130278 5.707223
Zn 0.210677 6.523323 10.044600
Zn -3.968733 8.130278 12.294861
O 0.210677 6.523323 12.458005
O -3.968733 8.130278 10.207744
Zn 8.439238 0.661883 1.043558
Zn 4.259828 2.268838 3.293819
O 8.439238 0.661883 3.456963
O 4.259828 2.268838 1.206702
Zn 8.439238 0.661883 5.544079
Zn 4.259828 2.268838 7.794340
O 8.439238 0.661883 7.957484
O 4.259828 2.268838 5.707223
Zn 8.439238 0.661883 10.044600
Zn 4.259828 2.268838 12.294861
O 8.439238 0.661883 12.458005
O 4.259828 2.268838 10.207744
Zn 5.853443 3.592603 1.043558
Zn 1.674033 5.199558 3.293819
O 5.853443 3.592603 3.456963
O 1.674033 5.199558 1.206702
Zn 5.853443 3.592603 5.544079
Zn 1.674033 5.199558 7.794340
O 5.853443 3.592603 7.957484
O 1.674033 5.199558 5.707223
Zn 5.853443 3.592603 10.044600
Zn 1.674033 5.199558 12.294861
O 5.853443 3.592603 12.458005
O 1.674033 5.199558 10.207744
Zn 3.267649 6.523323 1.043558
Zn -0.911761 8.130278 3.293819
O 3.267649 6.523323 3.456963
O -0.911761 8.130278 1.206702
Zn 3.267649 6.523323 5.544079
Zn -0.911761 8.130278 7.794340
O 3.267649 6.523323 7.957484
O -0.911761 8.130278 5.707223
Zn 3.267649 6.523323 10.044600
Zn -0.911761 8.130278 12.294861
O 3.267649 6.523323 12.458005
O -0.911761 8.130278 10.207744
