108
A
Zn 2.419610 0.527374 5.231188
Zn -1.152305 2.322896 7.725199
O 2.419610 0.527374 7.238867
O -1.152305 2.322896 9.732878
Zn 2.419610 0.527374 10.219210
Zn -1.152305 2.322896 12.713221
O 2.419610 0.527374 12.226889
O -1.152305 2.322896 14.720900
Zn 2.419610 0.527374 15.207232
Zn -1.152305 2.322896 17.701243
O 2.419610 0.527374 17.214911
O -1.152305 2.322896 19.708922
Zn 0.497072 3.377644 10.219210
Zn -3.074843 5.173166 12.713221
O 0.497072 3.377644 12.226889
O -3.074843 5.173166 14.720900
Zn 0.497072 3.377644 15.207232
Zn -3.074843 5.173166 17.701243
O 0.497072 3.377644 17.214911
O -3.074843 5.173166 19.708922
Zn 0.497072 3.377644 20.195254
Zn -3.074843 5.173166 22.689265
O 0.497072 3.377644 22.202933
O -3.074843 5.173166 24.696944
Zn -1.425467 6.227914 15.207232
Zn -4.997382 8.023436 17.701243
O -1.425467 6.227914 17.214911
O -4.997382 8.023436 19.708922
Zn -1.425467 6.227914 20.195254
Zn -4.997382 8.023436 22.689265
O -1.425467 6.227914 22.202933
O -4.997382 8.023436 24.696944
Zn -1.425467 6.227914 25.183276
Zn -4.997382 8.023436 27.677287
O -1.425467 6.227914 27.190955
O -4.997382 8.023436 29.684966
Zn 5.609453 0.527374 10.219210
Zn 2.037538 2.322896 12.713221
O 5.609453 0.527374 12.226889
O 2.037538 2.322896 14.720900
Zn 5.609453 0.527374 15.207232
Zn 2.037538 2.322896 17.701243
O 5.609453 0.527374 17.214911
O 2.037538 2.322896 19.708922
Zn 5.609453 0.527374 20.195254
Zn 2.037538 2.322896 22.689265
O 5.609453 0.527374 22.202933
O 2.037538 2.322896 24.696944
Zn 3.686915 3.377644 15.207232
Zn 0.115000 5.173166 17.701243
O 3.686915 3.377644 17.214911
O 0.115000 5.173166 19.708922
Zn 3.686915 3.377644 20.195254
Zn 0.115000 5.173166 22.689265
O 3.686915 3.377644 22.202933
O 0.115000 5.173166 24.696944
Zn 3.686915 3.377644 25.183276
Zn 0.115000 5.173166 27.677287
O 3.686915 3.377644 27.190955
O 0.115000 5.173166 29.684966
Zn 1.764377 6.227914 20.195254
Zn -1.807538 8.023436 22.689265
O 1.764377 6.227914 22.202933
O -1.807538 8.023436 24.696944
Zn 1.764377 6.227914 25.183276
Zn -1.807538 8.023436 27.677287
O 1.764377 6.227914 27.190955
O -1.807538 8.023436 29.684966
Zn 1.764377 6.227914 30.171298
Zn -1.807538 8.023436 32.665309
O 1.764377 6.227914 32.178977
O -1.807538 8.023436 34.672988
Zn 8.799297 0.527374 15.207232
Zn 5.227382 2.322896 17.701243
O 8.799297 0.527374 17.214911
O 5.227382 2.322896 19.708922
Zn 8.799297 0.527374 20.195254
Zn 5.227382 2.322896 22.689265
O 8.799297 0.527374 22.202933
O 5.227382 2.322896 24.696944
Zn 8.799297 0.527374 25.183276
Zn 5.227382 2.322896 27.677287
O 8.799297 0.527374 27.190955
O 5.227382 2.322896 29.684966
Zn 6.876758 3.377644 20.195254
Zn 3.304843 5.173166 22.689265
O 6.876758 3.377644 22.202933
O 3.304843 5.173166 24.696944
Zn 6.876758 3.377644 25.183276
Zn 3.304843 5.173166 27.677287
O 6.876758 3.377644 27.190955
O 3.304843 5.173166 29.684966
Zn 6.876758 3.377644 30.171298
Zn 3.304843 5.173166 32.665309
O 6.876758 3.377644 32.178977
O 3.304843 5.173166 34.672988
Zn 4.954220 6.227914 25.183276
Zn 1.382305 8.023436 27.677287
O 4.954220 6.227914 27.190955
O 1.382305 8.023436 29.684966
Zn 4.954220 6.227914 30.171298
Zn 1.382305 8.023436 32.665309
O 4.954220 6.227914 32.178977
O 1.382305 8.023436 34.672988
Zn 4.954220 6.227914 35.159320
Zn 1.382305 8.023436 37.653331
O 4.954220 6.227914 37.166999
O 1.382305 8.023436 39.661010
