108
A
Zn 2.419610 0.527374 1.003839
Zn -1.152305 2.322896 3.497850
O 2.419610 0.527374 3.984183
O -1.152305 2.322896 1.490172
Zn 2.419610 0.527374 5.991861
Zn -1.152305 2.322896 8.485872
O 2.419610 0.527374 8.972205
O -1.152305 2.322896 6.478194
Zn 2.419610 0.527374 10.979883
Zn -1.152305 2.322896 13.473894
O 2.419610 0.527374 13.960227
O -1.152305 2.322896 11.466216
Zn 0.497072 3.377644 1.003839
Zn -3.074843 5.173166 3.497850
O 0.497072 3.377644 3.984183
O -3.074843 5.173166 1.490172
Zn 0.497072 3.377644 5.991861
Zn -3.074843 5.173166 8.485872
O 0.497072 3.377644 8.972205
O -3.074843 5.173166 6.478194
Zn 0.497072 3.377644 10.979883
Zn -3.074843 5.173166 13.473894
O 0.497072 3.377644 13.960227
O -3.074843 5.173166 11.466216
Zn -1.425467 6.227914 1.003839
Zn -4.997382 8.023436 3.497850
O -1.425467 6.227914 3.984183
O -4.997382 8.023436 1.490172
Zn -1.425467 6.227914 5.991861
Zn -4.997382 8.023436 8.485872
O -1.425467 6.227914 8.972205
O -4.997382 8.023436 6.478194
Zn -1.425467 6.227914 10.979883
Zn -4.997382 8.023436 13.473894
O -1.425467 6.227914 13.960227
O -4.997382 8.023436 11.466216
Zn 5.609453 0.527374 1.003839
Zn 2.037538 2.322896 3.497850
O 5.609453 0.527374 3.984183
O 2.037538 2.322896 1.490172
Zn 5.609453 0.527374 5.991861
Zn 2.037538 2.322896 8.485872
O 5.609453 0.527374 8.972205
O 2.037538 2.322896 6.478194
Zn 5.609453 0.527374 10.979883
Zn 2.037538 2.322896 13.473894
O 5.609453 0.527374 13.960227
O 2.037538 2.322896 11.466216
Zn 3.686915 3.377644 1.003839
Zn 0.115000 5.173166 3.497850
O 3.686915 3.377644 3.984183
O 0.115000 5.173166 1.490172
Zn 3.686915 3.377644 5.991861
Zn 0.115000 5.173166 8.485872
O 3.686915 3.377644 8.972205
O 0.115000 5.173166 6.478194
Zn 3.686915 3.377644 10.979883
Zn 0.115000 5.173166 13.473894
O 3.686915 3.377644 13.960227
O 0.115000 5.173166 11.466216
Zn 1.764377 6.227914 1.003839
Zn -1.807538 8.023436 3.497850
O 1.764377 6.227914 3.984183
O -1.807538 8.023436 1.490172
Zn 1.764377 6.227914 5.991861
Zn -1.807538 8.023436 8.485872
O 1.764377 6.227914 8.972205
O -1.807538 8.023436 6.478194
Zn 1.764377 6.227914 10.979883
Zn -1.807538 8.023436 13.473894
O 1.764377 6.227914 13.960227
O -1.807538 8.023436 11.466216
Zn 8.799297 0.527374 1.003839
Zn 5.227382 2.322896 3.497850
O 8.799297 0.527374 3.984183
O 5.227382 2.322896 1.490172
Zn 8.799297 0.527374 5.991861
Zn 5.227382 2.322896 8.485872
O 8.799297 0.527374 8.972205
O 5.227382 2.322896 6.478194
Zn 8.799297 0.527374 10.979883
Zn 5.227382 2.322896 13.473894
O 8.799297 0.527374 13.960227
O 5.227382 2.322896 11.466216
Zn 6.876758 3.377644 1.003839
Zn 3.304843 5.173166 3.497850
O 6.876758 3.377644 3.984183
O 3.304843 5.173166 1.490172
Zn 6.876758 3.377644 5.991861
Zn 3.304843 5.173166 8.485872
O 6.876758 3.377644 8.972205
O 3.304843 5.173166 6.478194
Zn 6.876758 3.377644 10.979883
Zn 3.304843 5.173166 13.473894
O 6.876758 3.377644 13.960227
O 3.304843 5.173166 11.466216
Zn 4.954220 6.227914 1.003839
Zn 1.382305 8.023436 3.497850
O 4.954220 6.227914 3.984183
O 1.382305 8.023436 1.490172
Zn 4.954220 6.227914 5.991861
Zn 1.382305 8.023436 8.485872
O 4.954220 6.227914 8.972205
O 1.382305 8.023436 6.478194
Zn 4.954220 6.227914 10.979883
Zn 1.382305 8.023436 13.473894
O 4.954220 6.227914 13.960227
O 1.382305 8.023436 11.466216
