108
A
Zn 2.265003 0.718672 4.325737
Zn -2.118776 2.244886 6.476508
O 2.265003 0.718672 6.428115
O -2.118776 2.244886 8.578886
Zn 2.265003 0.718672 8.627278
Zn -2.118776 2.244886 10.778049
O 2.265003 0.718672 10.729656
O -2.118776 2.244886 12.880427
Zn 2.265003 0.718672 12.928819
Zn -2.118776 2.244886 15.079590
O 2.265003 0.718672 15.031197
O -2.118776 2.244886 17.181968
Zn -0.591508 3.682229 8.627278
Zn -4.975287 5.208443 10.778049
O -0.591508 3.682229 10.729656
O -4.975287 5.208443 12.880427
Zn -0.591508 3.682229 12.928819
Zn -4.975287 5.208443 15.079590
O -0.591508 3.682229 15.031197
O -4.975287 5.208443 17.181968
Zn -0.591508 3.682229 17.230360
Zn -4.975287 5.208443 19.381131
O -0.591508 3.682229 19.332738
O -4.975287 5.208443 21.483509
Zn -3.448019 6.645786 12.928819
Zn -7.831798 8.172000 15.079590
O -3.448019 6.645786 15.031197
O -7.831798 8.172000 17.181968
Zn -3.448019 6.645786 17.230360
Zn -7.831798 8.172000 19.381131
O -3.448019 6.645786 19.332738
O -7.831798 8.172000 21.483509
Zn -3.448019 6.645786 21.531901
Zn -7.831798 8.172000 23.682672
O -3.448019 6.645786 23.634279
O -7.831798 8.172000 25.785050
Zn 5.267742 0.718672 8.627278
Zn 0.883963 2.244886 10.778049
O 5.267742 0.718672 10.729656
O 0.883963 2.244886 12.880427
Zn 5.267742 0.718672 12.928819
Zn 0.883963 2.244886 15.079590
O 5.267742 0.718672 15.031197
O 0.883963 2.244886 17.181968
Zn 5.267742 0.718672 17.230360
Zn 0.883963 2.244886 19.381131
O 5.267742 0.718672 19.332738
O 0.883963 2.244886 21.483509
Zn 2.411231 3.682229 12.928819
Zn -1.972548 5.208443 15.079590
O 2.411231 3.682229 15.031197
O -1.972548 5.208443 17.181968
Zn 2.411231 3.682229 17.230360
Zn -1.972548 5.208443 19.381131
O 2.411231 3.682229 19.332738
O -1.972548 5.208443 21.483509
Zn 2.411231 3.682229 21.531901
Zn -1.972548 5.208443 23.682672
O 2.411231 3.682229 23.634279
O -1.972548 5.208443 25.785050
Zn -0.445281 6.645786 17.230360
Zn -4.829059 8.172000 19.381131
O -0.445281 6.645786 19.332738
O -4.829059 8.172000 21.483509
Zn -0.445281 6.645786 21.531901
Zn -4.829059 8.172000 23.682672
O -0.445281 6.645786 23.634279
O -4.829059 8.172000 25.785050
Zn -0.445281 6.645786 25.833442
Zn -4.829059 8.172000 27.984213
O -0.445281 6.645786 27.935820
O -4.829059 8.172000 30.086591
Zn 8.270481 0.718672 12.928819
Zn 3.886702 2.244886 15.079590
O 8.270481 0.718672 15.031197
O 3.886702 2.244886 17.181968
Zn 8.270481 0.718672 17.230360
Zn 3.886702 2.244886 19.381131
O 8.270481 0.718672 19.332738
O 3.886702 2.244886 21.483509
Zn 8.270481 0.718672 21.531901
Zn 3.886702 2.244886 23.682672
O 8.270481 0.718672 23.634279
O 3.886702 2.244886 25.785050
Zn 5.413969 3.682229 17.230360
Zn 1.030191 5.208443 19.381131
O 5.413969 3.682229 19.332738
O 1.030191 5.208443 21.483509
Zn 5.413969 3.682229 21.531901
Zn 1.030191 5.208443 23.682672
O 5.413969 3.682229 23.634279
O 1.030191 5.208443 25.785050
Zn 5.413969 3.682229 25.833442
Zn 1.030191 5.208443 27.984213
O 5.413969 3.682229 27.935820
O 1.030191 5.208443 30.086591
Zn 2.557458 6.645786 21.531901
Zn -1.826321 8.172000 23.682672
O 2.557458 6.645786 23.634279
O -1.826321 8.172000 25.785050
Zn 2.557458 6.645786 25.833442
Zn -1.826321 8.172000 27.984213
O 2.557458 6.645786 27.935820
O -1.826321 8.172000 30.086591
Zn 2.557458 6.645786 30.134983
Zn -1.826321 8.172000 32.285754
O 2.557458 6.645786 32.237361
O -1.826321 8.172000 34.388132
