108
A
Zn 2.436312 0.474360 5.504706
Zn -0.844057 2.343073 8.098207
O 2.436312 0.474360 7.462799
O -0.844057 2.343073 10.056300
Zn 2.436312 0.474360 10.691708
Zn -0.844057 2.343073 13.285209
O 2.436312 0.474360 12.649801
O -0.844057 2.343073 15.243302
Zn 2.436312 0.474360 15.878710
Zn -0.844057 2.343073 18.472211
O 2.436312 0.474360 17.836803
O -0.844057 2.343073 20.430304
Zn 0.784490 3.291793 10.691708
Zn -2.495879 5.160507 13.285209
O 0.784490 3.291793 12.649801
O -2.495879 5.160507 15.243302
Zn 0.784490 3.291793 15.878710
Zn -2.495879 5.160507 18.472211
O 0.784490 3.291793 17.836803
O -2.495879 5.160507 20.430304
Zn 0.784490 3.291793 21.065712
Zn -2.495879 5.160507 23.659213
O 0.784490 3.291793 23.023805
O -2.495879 5.160507 25.617306
Zn -0.867331 6.109226 15.878710
Zn -4.147701 7.977940 18.472211
O -0.867331 6.109226 17.836803
O -4.147701 7.977940 20.430304
Zn -0.867331 6.109226 21.065712
Zn -4.147701 7.977940 23.659213
O -0.867331 6.109226 23.023805
O -4.147701 7.977940 25.617306
Zn -0.867331 6.109226 26.252714
Zn -4.147701 7.977940 28.846215
O -0.867331 6.109226 28.210807
O -4.147701 7.977940 30.804308
Zn 5.680389 0.474360 10.691708
Zn 2.400020 2.343073 13.285209
O 5.680389 0.474360 12.649801
O 2.400020 2.343073 15.243302
Zn 5.680389 0.474360 15.878710
Zn 2.400020 2.343073 18.472211
O 5.680389 0.474360 17.836803
O 2.400020 2.343073 20.430304
Zn 5.680389 0.474360 21.065712
Zn 2.400020 2.343073 23.659213
O 5.680389 0.474360 23.023805
O 2.400020 2.343073 25.617306
Zn 4.028567 3.291793 15.878710
Zn 0.748198 5.160507 18.472211
O 4.028567 3.291793 17.836803
O 0.748198 5.160507 20.430304
Zn 4.028567 3.291793 21.065712
Zn 0.748198 5.160507 23.659213
O 4.028567 3.291793 23.023805
O 0.748198 5.160507 25.617306
Zn 4.028567 3.291793 26.252714
Zn 0.748198 5.160507 28.846215
O 4.028567 3.291793 28.210807
O 0.748198 5.160507 30.804308
Zn 2.376745 6.109226 21.065712
Zn -0.903624 7.977940 23.659213
O 2.376745 6.109226 23.023805
O -0.903624 7.977940 25.617306
Zn 2.376745 6.109226 26.252714
Zn -0.903624 7.977940 28.846215
O 2.376745 6.109226 28.210807
O -0.903624 7.977940 30.804308
Zn 2.376745 6.109226 31.439716
Zn -0.903624 7.977940 34.033217
O 2.376745 6.109226 33.397809
O -0.903624 7.977940 35.991310
Zn 8.924466 0.474360 15.878710
Zn 5.644096 2.343073 18.472211
O 8.924466 0.474360 17.836803
O 5.644096 2.343073 20.430304
Zn 8.924466 0.474360 21.065712
Zn 5.644096 2.343073 23.659213
O 8.924466 0.474360 23.023805
O 5.644096 2.343073 25.617306
Zn 8.924466 0.474360 26.252714
Zn 5.644096 2.343073 28.846215
O 8.924466 0.474360 28.210807
O 5.644096 2.343073 30.804308
Zn 7.272644 3.291793 21.065712
Zn 3.992275 5.160507 23.659213
O 7.272644 3.291793 23.023805
O 3.992275 5.160507 25.617306
Zn 7.272644 3.291793 26.252714
Zn 3.992275 5.160507 28.846215
O 7.272644 3.291793 28.210807
O 3.992275 5.160507 30.804308
Zn 7.272644 3.291793 31.439716
Zn 3.992275 5.160507 34.033217
O 7.272644 3.291793 33.397809
O 3.992275 5.160507 35.991310
Zn 5.620822 6.109226 26.252714
Zn 2.340453 7.977940 28.846215
O 5.620822 6.109226 28.210807
O 2.340453 7.977940 30.804308
Zn 5.620822 6.109226 31.439716
Zn 2.340453 7.977940 34.033217
O 5.620822 6.109226 33.397809
O 2.340453 7.977940 35.991310
Zn 5.620822 6.109226 36.626718
Zn 2.340453 7.977940 39.220219
O 5.620822 6.109226 38.584811
O 2.340453 7.977940 41.178312
