54
A
Si 1.667256 0.519929 1.503815
C 2.326208 1.870548 -2.565248
Si 1.667256 0.519929 4.431540
C 2.326208 1.870548 0.362477
Si 1.667256 0.519929 7.359264
C 2.326208 1.870548 3.290201
Si 3.125236 2.910406 -1.021480
C 3.784188 4.261025 -5.090543
Si 3.125236 2.910406 1.906245
C 3.784188 4.261025 -2.162818
Si 3.125236 2.910406 4.833969
C 3.784188 4.261025 0.764906
Si 4.583216 5.300883 -3.546775
C 5.242168 6.651502 -7.615838
Si 4.583216 5.300883 -0.619050
C 5.242168 6.651502 -4.688113
Si 4.583216 5.300883 2.308674
C 5.242168 6.651502 -1.760389
Si 4.202739 0.519929 0.039953
C 4.861692 1.870548 -4.029110
Si 4.202739 0.519929 2.967678
C 4.861692 1.870548 -1.101385
Si 4.202739 0.519929 5.895402
C 4.861692 1.870548 1.826339
Si 5.660719 2.910406 -2.485342
C 6.319672 4.261025 -6.554405
Si 5.660719 2.910406 0.442383
C 6.319672 4.261025 -3.626680
Si 5.660719 2.910406 3.370107
C 6.319672 4.261025 -0.698956
Si 7.118699 5.300883 -5.010637
C 7.777652 6.651502 -9.079700
Si 7.118699 5.300883 -2.082912
C 7.777652 6.651502 -6.151975
Si 7.118699 5.300883 0.844812
C 7.777652 6.651502 -3.224251
Si 6.738223 0.519929 -1.423909
C 7.397175 1.870548 -5.492972
Si 6.738223 0.519929 1.503815
C 7.397175 1.870548 -2.565248
Si 6.738223 0.519929 4.431540
C 7.397175 1.870548 0.362477
Si 8.196203 2.910406 -3.949204
C 8.855155 4.261025 -8.018267
Si 8.196203 2.910406 -1.021480
C 8.855155 4.261025 -5.090543
Si 8.196203 2.910406 1.906245
C 8.855155 4.261025 -2.162818
Si 9.654183 5.300883 -6.474499
C 10.313135 6.651502 -10.543562
Si 9.654183 5.300883 -3.546774
C 10.313135 6.651502 -7.615838
Si 9.654183 5.300883 -0.619050
C 10.313135 6.651502 -4.688113
