54
A
Si 0.402864 0.440289 3.809873
C 0.826324 2.005760 1.786223
Si 0.402864 0.440289 6.805659
C 0.826324 2.005760 4.782009
Si 0.402864 0.440289 9.801444
C 0.826324 2.005760 7.777794
Si -0.962375 2.886337 3.178751
C -0.538915 4.451808 1.155101
Si -0.962375 2.886337 6.174536
C -0.538915 4.451808 4.150886
Si -0.962375 2.886337 9.170322
C -0.538915 4.451808 7.146672
Si -2.327614 5.332386 2.547629
C -1.904153 6.897857 0.523979
Si -2.327614 5.332386 5.543414
C -1.904153 6.897857 3.519764
Si -2.327614 5.332386 8.539200
C -1.904153 6.897857 6.515550
Si 2.997290 0.440289 7.041306
C 3.420750 2.005760 5.017656
Si 2.997290 0.440289 10.037092
C 3.420750 2.005760 8.013442
Si 2.997290 0.440289 13.032877
C 3.420750 2.005760 11.009227
Si 1.632051 2.886337 6.410184
C 2.055511 4.451808 4.386534
Si 1.632051 2.886337 9.405970
C 2.055511 4.451808 7.382320
Si 1.632051 2.886337 12.401755
C 2.055511 4.451808 10.378105
Si 0.266812 5.332386 5.779062
C 0.690273 6.897857 3.755412
Si 0.266812 5.332386 8.774847
C 0.690273 6.897857 6.751197
Si 0.266812 5.332386 11.770633
C 0.690273 6.897857 9.746983
Si 5.591716 0.440289 10.272739
C 6.015176 2.005760 8.249089
Si 5.591716 0.440289 13.268525
C 6.015176 2.005760 11.244875
Si 5.591716 0.440289 16.264310
C 6.015176 2.005760 14.240660
Si 4.226477 2.886337 9.641617
C 4.649938 4.451808 7.617967
Si 4.226477 2.886337 12.637403
C 4.649938 4.451808 10.613753
Si 4.226477 2.886337 15.633188
C 4.649938 4.451808 13.609538
Si 2.861239 5.332386 9.010495
C 3.284699 6.897857 6.986845
Si 2.861239 5.332386 12.006281
C 3.284699 6.897857 9.982631
Si 2.861239 5.332386 15.002066
C 3.284699 6.897857 12.978416
