54
A
Si 1.656707 0.578164 1.443815
C 2.466974 1.769709 -2.835152
Si 1.656707 0.578164 4.319360
C 2.466974 1.769709 0.040392
Si 1.656707 0.578164 7.194904
C 2.466974 1.769709 2.915936
Si 3.290095 2.926036 -1.385294
C 4.100362 4.117581 -5.664262
Si 3.290095 2.926036 1.490250
C 4.100362 4.117581 -2.788718
Si 3.290095 2.926036 4.365795
C 4.100362 4.117581 0.086827
Si 4.923483 5.273908 -4.214404
C 5.733750 6.465453 -8.493372
Si 4.923483 5.273908 -1.338859
C 5.733750 6.465453 -5.617827
Si 4.923483 5.273908 1.536685
C 5.733750 6.465453 -2.742283
Si 4.147002 0.578164 0.006043
C 4.957269 1.769709 -4.272924
Si 4.147002 0.578164 2.881588
C 4.957269 1.769709 -1.397380
Si 4.147002 0.578164 5.757132
C 4.957269 1.769709 1.478165
Si 5.780389 2.926036 -2.823066
C 6.590656 4.117581 -7.102034
Si 5.780389 2.926036 0.052478
C 6.590656 4.117581 -4.226489
Si 5.780389 2.926036 2.928023
C 6.590656 4.117581 -1.350945
Si 7.413777 5.273908 -5.652176
C 8.224044 6.465453 -9.931143
Si 7.413777 5.273908 -2.776631
C 8.224044 6.465453 -7.055599
Si 7.413777 5.273908 0.098913
C 8.224044 6.465453 -4.180055
Si 6.637296 0.578164 -1.431729
C 7.447563 1.769709 -5.710696
Si 6.637296 0.578164 1.443816
C 7.447563 1.769709 -2.835152
Si 6.637296 0.578164 4.319360
C 7.447563 1.769709 0.040393
Si 8.270684 2.926036 -4.260838
C 9.080951 4.117581 -8.539806
Si 8.270684 2.926036 -1.385294
C 9.080951 4.117581 -5.664261
Si 8.270684 2.926036 1.490251
C 9.080951 4.117581 -2.788717
Si 9.904071 5.273908 -7.089948
C 10.714338 6.465453 -11.368915
Si 9.904071 5.273908 -4.214403
C 10.714338 6.465453 -8.493371
Si 9.904071 5.273908 -1.338859
C 10.714338 6.465453 -5.617827
