54
A
Si 1.737861 0.379237 1.558482
C 1.961196 2.107564 -1.874043
Si 1.737861 0.379237 4.604179
C 1.961196 2.107564 1.171653
Si 1.737861 0.379237 7.649875
C 1.961196 2.107564 4.217350
Si 2.799267 2.866038 -0.279928
C 3.022603 4.594365 -3.712453
Si 2.799267 2.866038 2.765769
C 3.022603 4.594365 -0.666756
Si 2.799267 2.866038 5.811466
C 3.022603 4.594365 2.378940
Si 3.860673 5.352839 -2.118338
C 4.084009 7.081166 -5.550863
Si 3.860673 5.352839 0.927359
C 4.084009 7.081166 -2.505166
Si 3.860673 5.352839 3.973056
C 4.084009 7.081166 0.540531
Si 4.375511 0.379237 0.035633
C 4.598847 2.107564 -3.396892
Si 4.375511 0.379237 3.081330
C 4.598847 2.107564 -0.351195
Si 4.375511 0.379237 6.127027
C 4.598847 2.107564 2.694501
Si 5.436918 2.866038 -1.802777
C 5.660253 4.594365 -5.235302
Si 5.436918 2.866038 1.242920
C 5.660253 4.594365 -2.189605
Si 5.436918 2.866038 4.288617
C 5.660253 4.594365 0.856092
Si 6.498324 5.352839 -3.641186
C 6.721660 7.081166 -7.073712
Si 6.498324 5.352839 -0.595490
C 6.721660 7.081166 -4.028015
Si 6.498324 5.352839 2.450207
C 6.721660 7.081166 -0.982318
Si 7.013162 0.379237 -1.487216
C 7.236498 2.107564 -4.919741
Si 7.013162 0.379237 1.558481
C 7.236498 2.107564 -1.874044
Si 7.013162 0.379237 4.604178
C 7.236498 2.107564 1.171653
Si 8.074568 2.866038 -3.325625
C 8.297904 4.594365 -6.758151
Si 8.074568 2.866038 -0.279929
C 8.297904 4.594365 -3.712454
Si 8.074568 2.866038 2.765768
C 8.297904 4.594365 -0.666757
Si 9.135975 5.352839 -5.164035
C 9.359310 7.081166 -8.596560
Si 9.135975 5.352839 -2.118338
C 9.359310 7.081166 -5.550863
Si 9.135975 5.352839 0.927359
C 9.359310 7.081166 -2.505167
