54
A
Si 0.398297 0.499099 3.741668
C 0.998672 1.906197 0.782967
Si 0.398297 0.499099 6.687542
C 0.998672 1.906197 3.728841
Si 0.398297 0.499099 9.633416
C 0.998672 1.906197 6.674715
Si -0.755936 2.904395 2.794984
C -0.155561 4.311493 -0.163717
Si -0.755936 2.904395 5.740859
C -0.155561 4.311493 2.782157
Si -0.755936 2.904395 8.686733
C -0.155561 4.311493 5.728032
Si -1.910169 5.309691 1.848301
C -1.309794 6.716789 -1.110400
Si -1.910169 5.309691 4.794175
C -1.309794 6.716789 1.835474
Si -1.910169 5.309691 7.740049
C -1.309794 6.716789 4.781348
Si 2.949499 0.499099 6.267112
C 3.549873 1.906197 3.308411
Si 2.949499 0.499099 9.212986
C 3.549873 1.906197 6.254285
Si 2.949499 0.499099 12.158860
C 3.549873 1.906197 9.200159
Si 1.795266 2.904395 5.320428
C 2.395640 4.311493 2.361727
Si 1.795266 2.904395 8.266302
C 2.395640 4.311493 5.307601
Si 1.795266 2.904395 11.212176
C 2.395640 4.311493 8.253475
Si 0.641033 5.309691 4.373745
C 1.241407 6.716789 1.415044
Si 0.641033 5.309691 7.319619
C 1.241407 6.716789 4.360918
Si 0.641033 5.309691 10.265493
C 1.241407 6.716789 7.306792
Si 5.500700 0.499099 8.792556
C 6.101075 1.906197 5.833854
Si 5.500700 0.499099 11.738430
C 6.101075 1.906197 8.779728
Si 5.500700 0.499099 14.684304
C 6.101075 1.906197 11.725603
Si 4.346467 2.904395 7.845872
C 4.946842 4.311493 4.887171
Si 4.346467 2.904395 10.791746
C 4.946842 4.311493 7.833045
Si 4.346467 2.904395 13.737620
C 4.946842 4.311493 10.778919
Si 3.192234 5.309691 6.899189
C 3.792609 6.716789 3.940488
Si 3.192234 5.309691 9.845063
C 3.792609 6.716789 6.886362
Si 3.192234 5.309691 12.790937
C 3.792609 6.716789 9.832236
