54
A
Si 0.410246 0.407266 3.836290
C 0.727425 2.061011 2.344240
Si 0.410246 0.407266 6.859299
C 0.727425 2.061011 5.367250
Si 0.410246 0.407266 9.882309
C 0.727425 2.061011 8.390260
Si -1.070087 2.875543 3.377292
C -0.752908 4.529288 1.885242
Si -1.070087 2.875543 6.400302
C -0.752908 4.529288 4.908252
Si -1.070087 2.875543 9.423311
C -0.752908 4.529288 7.931262
Si -2.550419 5.343820 2.918294
C -2.233241 6.997566 1.426245
Si -2.550419 5.343820 5.941304
C -2.233241 6.997566 4.449254
Si -2.550419 5.343820 8.964313
C -2.233241 6.997566 7.472264
Si 3.028249 0.407266 7.452808
C 3.345428 2.061011 5.960759
Si 3.028249 0.407266 10.475818
C 3.345428 2.061011 8.983768
Si 3.028249 0.407266 13.498827
C 3.345428 2.061011 12.006778
Si 1.547916 2.875543 6.993810
C 1.865095 4.529288 5.501761
Si 1.547916 2.875543 10.016820
C 1.865095 4.529288 8.524770
Si 1.547916 2.875543 13.039830
C 1.865095 4.529288 11.547780
Si 0.067584 5.343820 6.534812
C 0.384762 6.997566 5.042763
Si 0.067584 5.343820 9.557822
C 0.384762 6.997566 8.065773
Si 0.067584 5.343820 12.580832
C 0.384762 6.997566 11.088782
Si 5.646252 0.407266 11.069326
C 5.963431 2.061011 9.577277
Si 5.646252 0.407266 14.092336
C 5.963431 2.061011 12.600287
Si 5.646252 0.407266 17.115346
C 5.963431 2.061011 15.623296
Si 4.165920 2.875543 10.610328
C 4.483098 4.529288 9.118279
Si 4.165920 2.875543 13.633338
C 4.483098 4.529288 12.141289
Si 4.165920 2.875543 16.656348
C 4.483098 4.529288 15.164298
Si 2.685587 5.343820 10.151330
C 3.002766 6.997566 8.659281
Si 2.685587 5.343820 13.174340
C 3.002766 6.997566 11.682291
Si 2.685587 5.343820 16.197350
C 3.002766 6.997566 14.705301
