54
A
Si 1.674836 0.496474 1.521313
C 2.267673 1.910674 -2.453653
Si 1.674836 0.496474 4.469456
C 2.267673 1.910674 0.494490
Si 1.674836 0.496474 7.417598
C 2.267673 1.910674 3.442633
Si 3.064178 2.903623 -0.885098
C 3.657015 4.317823 -4.860064
Si 3.064178 2.903623 2.063045
C 3.657015 4.317823 -1.911921
Si 3.064178 2.903623 5.011188
C 3.657015 4.317823 1.036222
Si 4.453521 5.310771 -3.291509
C 5.046357 6.724971 -7.266475
Si 4.453521 5.310771 -0.343366
C 5.046357 6.724971 -4.318332
Si 4.453521 5.310771 2.604777
C 5.046357 6.724971 -1.370189
Si 4.228002 0.496474 0.047242
C 4.820839 1.910674 -3.927724
Si 4.228002 0.496474 2.995384
C 4.820839 1.910674 -0.979581
Si 4.228002 0.496474 5.943527
C 4.820839 1.910674 1.968562
Si 5.617345 2.903623 -2.359169
C 6.210181 4.317823 -6.334135
Si 5.617345 2.903623 0.588973
C 6.210181 4.317823 -3.385992
Si 5.617345 2.903623 3.537116
C 6.210181 4.317823 -0.437849
Si 7.006687 5.310771 -4.765580
C 7.599524 6.724971 -8.740546
Si 7.006687 5.310771 -1.817438
C 7.599524 6.724971 -5.792403
Si 7.006687 5.310771 1.130705
C 7.599524 6.724971 -2.844260
Si 6.781169 0.496474 -1.426830
C 7.374005 1.910674 -5.401795
Si 6.781169 0.496474 1.521313
C 7.374005 1.910674 -2.453652
Si 6.781169 0.496474 4.469456
C 7.374005 1.910674 0.494490
Si 8.170511 2.903623 -3.833241
C 8.763348 4.317823 -7.808206
Si 8.170511 2.903623 -0.885098
C 8.763348 4.317823 -4.860063
Si 8.170511 2.903623 2.063045
C 8.763348 4.317823 -1.911921
Si 9.559853 5.310771 -6.239652
C 10.152690 6.724971 -10.214617
Si 9.559853 5.310771 -3.291509
C 10.152690 6.724971 -7.266474
Si 9.559853 5.310771 -0.343366
C 10.152690 6.724971 -4.318332
