54
A
Si 0.412631 0.398906 3.841704
C 0.702160 2.074928 2.484934
Si 0.412631 0.398906 6.871520
C 0.702160 2.074928 5.514750
Si 0.412631 0.398906 9.901336
C 0.702160 2.074928 8.544566
Si -1.096475 2.872740 3.425737
C -0.806946 4.548763 2.068968
Si -1.096475 2.872740 6.455553
C -0.806946 4.548763 5.098783
Si -1.096475 2.872740 9.485369
C -0.806946 4.548763 8.128599
Si -2.605581 5.346574 3.009770
C -2.316052 7.022597 1.653001
Si -2.605581 5.346574 6.039586
C -2.316052 7.022597 4.682817
Si -2.605581 5.346574 9.069402
C -2.316052 7.022597 7.712632
Si 3.036528 0.398906 7.554494
C 3.326058 2.074928 6.197724
Si 3.036528 0.398906 10.584310
C 3.326058 2.074928 9.227540
Si 3.036528 0.398906 13.614125
C 3.326058 2.074928 12.257356
Si 1.527422 2.872740 7.138527
C 1.816952 4.548763 5.781757
Si 1.527422 2.872740 10.168343
C 1.816952 4.548763 8.811573
Si 1.527422 2.872740 13.198159
C 1.816952 4.548763 11.841389
Si 0.018316 5.346574 6.722560
C 0.307845 7.022597 5.365790
Si 0.018316 5.346574 9.752376
C 0.307845 7.022597 8.395606
Si 0.018316 5.346574 12.782192
C 0.307845 7.022597 11.425422
Si 5.660426 0.398906 11.267283
C 5.949955 2.074928 9.910513
Si 5.660426 0.398906 14.297099
C 5.949955 2.074928 12.940329
Si 5.660426 0.398906 17.326915
C 5.949955 2.074928 15.970145
Si 4.151320 2.872740 10.851316
C 4.440849 4.548763 9.494546
Si 4.151320 2.872740 13.881132
C 4.440849 4.548763 12.524362
Si 4.151320 2.872740 16.910948
C 4.440849 4.548763 15.554178
Si 2.642213 5.346574 10.435349
C 2.931743 7.022597 9.078580
Si 2.642213 5.346574 13.465165
C 2.931743 7.022597 12.108396
Si 2.642213 5.346574 16.494981
C 2.931743 7.022597 15.138211
