54
A
Si 1.656390 0.583112 1.437560
C 2.478616 1.761056 -2.857584
Si 1.656390 0.583112 4.308567
C 2.478616 1.761056 0.013423
Si 1.656390 0.583112 7.179574
C 2.478616 1.761056 2.884430
Si 3.305030 2.927279 -1.417969
C 4.127256 4.105223 -5.713112
Si 3.305030 2.927279 1.453038
C 4.127256 4.105223 -2.842105
Si 3.305030 2.927279 4.324045
C 4.127256 4.105223 0.028902
Si 4.953671 5.271446 -4.273497
C 5.775896 6.449391 -8.568641
Si 4.953671 5.271446 -1.402490
C 5.775896 6.449391 -5.697634
Si 4.953671 5.271446 1.468517
C 5.775896 6.449391 -2.826627
Si 4.142755 0.583112 0.002056
C 4.964981 1.761056 -4.293087
Si 4.142755 0.583112 2.873063
C 4.964981 1.761056 -1.422080
Si 4.142755 0.583112 5.744070
C 4.964981 1.761056 1.448927
Si 5.791395 2.927279 -2.853472
C 6.613621 4.105223 -7.148616
Si 5.791395 2.927279 0.017535
C 6.613621 4.105223 -4.277609
Si 5.791395 2.927279 2.888542
C 6.613621 4.105223 -1.406601
Si 7.440035 5.271446 -5.709000
C 8.262261 6.449391 -10.004144
Si 7.440035 5.271446 -2.837993
C 8.262261 6.449391 -7.133137
Si 7.440035 5.271446 0.033014
C 8.262261 6.449391 -4.262130
Si 6.629120 0.583112 -1.433447
C 7.451345 1.761056 -5.728590
Si 6.629120 0.583112 1.437560
C 7.451345 1.761056 -2.857583
Si 6.629120 0.583112 4.308567
C 7.451345 1.761056 0.013424
Si 8.277760 2.927279 -4.288975
C 9.099986 4.105223 -8.584119
Si 8.277760 2.927279 -1.417968
C 9.099986 4.105223 -5.713112
Si 8.277760 2.927279 1.453039
C 9.099986 4.105223 -2.842105
Si 9.926400 5.271446 -7.144503
C 10.748626 6.449391 -11.439647
Si 9.926400 5.271446 -4.273496
C 10.748626 6.449391 -8.568640
Si 9.926400 5.271446 -1.402489
C 10.748626 6.449391 -5.697633
