54
A
Si 0.414341 0.393309 3.845049
C 0.685198 2.084230 2.578995
Si 0.414341 0.393309 6.879403
C 0.685198 2.084230 5.613348
Si 0.414341 0.393309 9.913756
C 0.685198 2.084230 8.647701
Si -1.113948 2.870848 3.457770
C -0.843091 4.561769 2.191715
Si -1.113948 2.870848 6.492123
C -0.843091 4.561769 5.226069
Si -1.113948 2.870848 9.526477
C -0.843091 4.561769 8.260422
Si -2.642236 5.348387 3.070490
C -2.371380 7.039308 1.804436
Si -2.642236 5.348387 6.104844
C -2.371380 7.039308 4.838789
Si -2.642236 5.348387 9.139197
C -2.371380 7.039308 7.873142
Si 3.042168 0.393309 7.622020
C 3.313024 2.084230 6.355965
Si 3.042168 0.393309 10.656373
C 3.313024 2.084230 9.390318
Si 3.042168 0.393309 13.690726
C 3.313024 2.084230 12.424672
Si 1.513879 2.870848 7.234740
C 1.784736 4.561769 5.968686
Si 1.513879 2.870848 10.269094
C 1.784736 4.561769 9.003039
Si 1.513879 2.870848 13.303447
C 1.784736 4.561769 12.037392
Si -0.014409 5.348387 6.847461
C 0.256447 7.039308 5.581406
Si -0.014409 5.348387 9.881814
C 0.256447 7.039308 8.615759
Si -0.014409 5.348387 12.916167
C 0.256447 7.039308 11.650113
Si 5.669995 0.393309 11.398990
C 5.940851 2.084230 10.132935
Si 5.669995 0.393309 14.433343
C 5.940851 2.084230 13.167289
Si 5.669995 0.393309 17.467697
C 5.940851 2.084230 16.201642
Si 4.141706 2.870848 11.011711
C 4.412563 4.561769 9.745656
Si 4.141706 2.870848 14.046064
C 4.412563 4.561769 12.780009
Si 4.141706 2.870848 17.080417
C 4.412563 4.561769 15.814362
Si 2.613418 5.348387 10.624431
C 2.884274 7.039308 9.358376
Si 2.613418 5.348387 13.658784
C 2.884274 7.039308 12.392730
Si 2.613418 5.348387 16.693138
C 2.884274 7.039308 15.427083
