54
A
Si 1.663281 0.535357 1.490281
C 2.364153 1.844006 -2.637776
Si 1.663281 0.535357 4.404393
C 2.364153 1.844006 0.276336
Si 1.663281 0.535357 7.318506
C 2.364153 1.844006 3.190449
Si 3.167020 2.914719 -1.114270
C 3.867891 4.223369 -5.242327
Si 3.167020 2.914719 1.799842
C 3.867891 4.223369 -2.328214
Si 3.167020 2.914719 4.713955
C 3.867891 4.223369 0.585898
Si 4.670758 5.294082 -3.718821
C 5.371630 6.602731 -7.846878
Si 4.670758 5.294082 -0.804709
C 5.371630 6.602731 -4.932765
Si 4.670758 5.294082 2.109404
C 5.371630 6.602731 -2.018653
Si 4.186976 0.535357 0.033225
C 4.887848 1.844006 -4.094832
Si 4.186976 0.535357 2.947337
C 4.887848 1.844006 -1.180719
Si 4.186976 0.535357 5.861450
C 4.887848 1.844006 1.733393
Si 5.690715 2.914719 -2.571326
C 6.391586 4.223369 -6.699383
Si 5.690715 2.914719 0.342786
C 6.391586 4.223369 -3.785270
Si 5.690715 2.914719 3.256899
C 6.391586 4.223369 -0.871158
Si 7.194453 5.294082 -5.175877
C 7.895325 6.602731 -9.303934
Si 7.194453 5.294082 -2.261764
C 7.895325 6.602731 -6.389821
Si 7.194453 5.294082 0.652348
C 7.895325 6.602731 -3.475709
Si 6.710671 0.535357 -1.423831
C 7.411543 1.844006 -5.551888
Si 6.710671 0.535357 1.490281
C 7.411543 1.844006 -2.637775
Si 6.710671 0.535357 4.404394
C 7.411543 1.844006 0.276337
Si 8.214410 2.914719 -4.028382
C 8.915281 4.223369 -8.156439
Si 8.214410 2.914719 -1.114270
C 8.915281 4.223369 -5.242326
Si 8.214410 2.914719 1.799843
C 8.915281 4.223369 -2.328214
Si 9.718148 5.294082 -6.632933
C 10.419020 6.602731 -10.760990
Si 9.718148 5.294082 -3.718820
C 10.419020 6.602731 -7.846877
Si 9.718148 5.294082 -0.804708
C 10.419020 6.602731 -4.932765
