54
A
Si 0.408077 0.415584 3.830399
C 0.752473 2.047136 2.204022
Si 0.408077 0.415584 6.846603
C 0.752473 2.047136 5.220226
Si 0.408077 0.415584 9.862807
C 0.752473 2.047136 8.236430
Si -1.043483 2.878304 3.328370
C -0.699086 4.509856 1.701993
Si -1.043483 2.878304 6.344574
C -0.699086 4.509856 4.718197
Si -1.043483 2.878304 9.360778
C -0.699086 4.509856 7.734401
Si -2.495042 5.341024 2.826341
C -2.150645 6.972576 1.199964
Si -2.495042 5.341024 5.842545
C -2.150645 6.972576 4.216168
Si -2.495042 5.341024 8.858749
C -2.150645 6.972576 7.232372
Si 3.020186 0.415584 7.350646
C 3.364582 2.047136 5.724269
Si 3.020186 0.415584 10.366850
C 3.364582 2.047136 8.740473
Si 3.020186 0.415584 13.383054
C 3.364582 2.047136 11.756677
Si 1.568626 2.878304 6.848617
C 1.913023 4.509856 5.222240
Si 1.568626 2.878304 9.864821
C 1.913023 4.509856 8.238444
Si 1.568626 2.878304 12.881025
C 1.913023 4.509856 11.254648
Si 0.117067 5.341024 6.346588
C 0.461464 6.972576 4.720211
Si 0.117067 5.341024 9.362792
C 0.461464 6.972576 7.736415
Si 0.117067 5.341024 12.378996
C 0.461464 6.972576 10.752619
Si 5.632294 0.415584 10.870893
C 5.976691 2.047136 9.244516
Si 5.632294 0.415584 13.887097
C 5.976691 2.047136 12.260720
Si 5.632294 0.415584 16.903301
C 5.976691 2.047136 15.276924
Si 4.180735 2.878304 10.368864
C 4.525132 4.509856 8.742487
Si 4.180735 2.878304 13.385068
C 4.525132 4.509856 11.758691
Si 4.180735 2.878304 16.401272
C 4.525132 4.509856 14.774895
Si 2.729176 5.341024 9.866835
C 3.073573 6.972576 8.240458
Si 2.729176 5.341024 12.883039
C 3.073573 6.972576 11.256662
Si 2.729176 5.341024 15.899243
C 3.073573 6.972576 14.272866
