54
A
Si 1.715813 0.412816 1.555834
C 2.051184 2.051756 -2.043520
Si 1.715813 0.412816 4.574306
C 2.051184 2.051756 0.974953
Si 1.715813 0.412816 7.592779
C 2.051184 2.051756 3.993425
Si 2.868736 2.877388 -0.441088
C 3.204108 4.516329 -4.040441
Si 2.868736 2.877388 2.577385
C 3.204108 4.516329 -1.021969
Si 2.868736 2.877388 5.595857
C 3.204108 4.516329 1.996504
Si 4.021659 5.341960 -2.438010
C 4.357031 6.980901 -6.037363
Si 4.021659 5.341960 0.580463
C 4.357031 6.980901 -3.018891
Si 4.021659 5.341960 3.598935
C 4.357031 6.980901 -0.000418
Si 4.329886 0.412816 0.046597
C 4.665258 2.051756 -3.552756
Si 4.329886 0.412816 3.065070
C 4.665258 2.051756 -0.534284
Si 4.329886 0.412816 6.083542
C 4.665258 2.051756 2.484189
Si 5.482810 2.877388 -1.950324
C 5.818181 4.516329 -5.549678
Si 5.482810 2.877388 1.068148
C 5.818181 4.516329 -2.531205
Si 5.482810 2.877388 4.086621
C 5.818181 4.516329 0.487267
Si 6.635733 5.341960 -3.947246
C 6.971105 6.980901 -7.546599
Si 6.635733 5.341960 -0.928774
C 6.971105 6.980901 -4.528127
Si 6.635733 5.341960 2.089699
C 6.971105 6.980901 -1.509655
Si 6.943960 0.412816 -1.462639
C 7.279332 2.051756 -5.061992
Si 6.943960 0.412816 1.555833
C 7.279332 2.051756 -2.043520
Si 6.943960 0.412816 4.574306
C 7.279332 2.051756 0.974952
Si 8.096883 2.877388 -3.459561
C 8.432255 4.516329 -7.058914
Si 8.096883 2.877388 -0.441088
C 8.432255 4.516329 -4.040442
Si 8.096883 2.877388 2.577384
C 8.432255 4.516329 -1.021969
Si 9.249807 5.341960 -5.456482
C 9.585179 6.980901 -9.055836
Si 9.249807 5.341960 -2.438010
C 9.585179 6.980901 -6.037363
Si 9.249807 5.341960 0.580462
C 9.585179 6.980901 -3.018891
