54
A
Si 1.752317 0.359342 1.557265
C 1.907109 2.140426 -1.772421
Si 1.752317 0.359342 4.618842
C 1.907109 2.140426 1.289157
Si 1.752317 0.359342 7.680420
C 1.907109 2.140426 4.350735
Si 2.760338 2.859109 -0.188680
C 2.915130 4.640194 -3.518365
Si 2.760338 2.859109 2.872898
C 2.915130 4.640194 -0.456787
Si 2.760338 2.859109 5.934476
C 2.915130 4.640194 2.604790
Si 3.768360 5.358877 -1.934624
C 3.923152 7.139961 -5.264309
Si 3.768360 5.358877 1.126953
C 3.923152 7.139961 -2.202732
Si 3.768360 5.358877 4.188531
C 3.923152 7.139961 0.858846
Si 4.403721 0.359342 0.026475
C 4.558513 2.140426 -3.303210
Si 4.403721 0.359342 3.088053
C 4.558513 2.140426 -0.241632
Si 4.403721 0.359342 6.149631
C 4.558513 2.140426 2.819946
Si 5.411742 2.859109 -1.719469
C 5.566534 4.640194 -5.049154
Si 5.411742 2.859109 1.342109
C 5.566534 4.640194 -1.987576
Si 5.411742 2.859109 4.403686
C 5.566534 4.640194 1.074001
Si 6.419764 5.358877 -3.465413
C 6.574555 7.139961 -6.795099
Si 6.419764 5.358877 -0.403836
C 6.574555 7.139961 -3.733521
Si 6.419764 5.358877 2.657742
C 6.574555 7.139961 -0.671943
Si 7.055125 0.359342 -1.504314
C 7.209917 2.140426 -4.833999
Si 7.055125 0.359342 1.557264
C 7.209917 2.140426 -1.772421
Si 7.055125 0.359342 4.618842
C 7.209917 2.140426 1.289156
Si 8.063146 2.859109 -3.250258
C 8.217938 4.640194 -6.579943
Si 8.063146 2.859109 -0.188680
C 8.217938 4.640194 -3.518366
Si 8.063146 2.859109 2.872897
C 8.217938 4.640194 -0.456788
Si 9.071167 5.358877 -4.996203
C 9.225959 7.139961 -8.325888
Si 9.071167 5.358877 -1.934625
C 9.225959 7.139961 -5.264310
Si 9.071167 5.358877 1.126953
C 9.225959 7.139961 -2.202732
