54
A
Si 1.656537 0.580640 1.440708
C 2.472807 1.765380 -2.846389
Si 1.656537 0.580640 4.313984
C 2.472807 1.765380 0.026887
Si 1.656537 0.580640 7.187260
C 2.472807 1.765380 2.900162
Si 3.297551 2.926660 -1.401611
C 4.113821 4.111400 -5.688708
Si 3.297551 2.926660 1.471665
C 4.113821 4.111400 -2.815432
Si 3.297551 2.926660 4.344941
C 4.113821 4.111400 0.057844
Si 4.938565 5.272680 -4.243930
C 5.754835 6.457420 -8.531027
Si 4.938565 5.272680 -1.370654
C 5.754835 6.457420 -5.657751
Si 4.938565 5.272680 1.502622
C 5.754835 6.457420 -2.784475
Si 4.144866 0.580640 0.004071
C 4.961137 1.765380 -4.283027
Si 4.144866 0.580640 2.877346
C 4.961137 1.765380 -1.409751
Si 4.144866 0.580640 5.750622
C 4.961137 1.765380 1.463525
Si 5.785880 2.926660 -2.838248
C 6.602151 4.111400 -7.125345
Si 5.785880 2.926660 0.035027
C 6.602151 4.111400 -4.252070
Si 5.785880 2.926660 2.908303
C 6.602151 4.111400 -1.378794
Si 7.426894 5.272680 -5.680567
C 8.243165 6.457420 -9.967664
Si 7.426894 5.272680 -2.807291
C 8.243165 6.457420 -7.094389
Si 7.426894 5.272680 0.065984
C 8.243165 6.457420 -4.221113
Si 6.633196 0.580640 -1.432567
C 7.449466 1.765380 -5.719664
Si 6.633196 0.580640 1.440709
C 7.449466 1.765380 -2.846388
Si 6.633196 0.580640 4.313985
C 7.449466 1.765380 0.026887
Si 8.274210 2.926660 -4.274886
C 9.090480 4.111400 -8.561983
Si 8.274210 2.926660 -1.401610
C 9.090480 4.111400 -5.688707
Si 8.274210 2.926660 1.471666
C 9.090480 4.111400 -2.815432
Si 9.915224 5.272680 -7.117205
C 10.731494 6.457420 -11.404302
Si 9.915224 5.272680 -4.243929
C 10.731494 6.457420 -8.531026
Si 9.915224 5.272680 -1.370653
C 10.731494 6.457420 -5.657751
