54
A
Si 1.732025 0.387694 1.558380
C 1.984017 2.093549 -1.916973
Si 1.732025 0.387694 4.597271
C 1.984017 2.093549 1.121918
Si 1.732025 0.387694 7.636162
C 1.984017 2.093549 4.160808
Si 2.816311 2.868938 -0.319657
C 3.068303 4.574793 -3.795011
Si 2.816311 2.868938 2.719233
C 3.068303 4.574793 -0.756120
Si 2.816311 2.868938 5.758124
C 3.068303 4.574793 2.282771
Si 3.900596 5.350182 -2.197695
C 4.152588 7.056037 -5.673049
Si 3.900596 5.350182 0.841196
C 4.152588 7.056037 -2.634158
Si 3.900596 5.350182 3.880086
C 4.152588 7.056037 0.404733
Si 4.363781 0.387694 0.038935
C 4.615773 2.093549 -3.436419
Si 4.363781 0.387694 3.077826
C 4.615773 2.093549 -0.397528
Si 4.363781 0.387694 6.116716
C 4.615773 2.093549 2.641363
Si 5.448067 2.868938 -1.839103
C 5.700059 4.574793 -5.314456
Si 5.448067 2.868938 1.199788
C 5.700059 4.574793 -2.275566
Si 5.448067 2.868938 4.238679
C 5.700059 4.574793 0.763325
Si 6.532353 5.350182 -3.717141
C 6.784345 7.056037 -7.192494
Si 6.532353 5.350182 -0.678250
C 6.784345 7.056037 -4.153604
Si 6.532353 5.350182 2.360641
C 6.784345 7.056037 -1.114713
Si 6.995538 0.387694 -1.480511
C 7.247530 2.093549 -4.955864
Si 6.995538 0.387694 1.558380
C 7.247530 2.093549 -1.916974
Si 6.995538 0.387694 4.597271
C 7.247530 2.093549 1.121917
Si 8.079823 2.868938 -3.358548
C 8.331816 4.574793 -6.833902
Si 8.079823 2.868938 -0.319658
C 8.331816 4.574793 -3.795011
Si 8.079823 2.868938 2.719233
C 8.331816 4.574793 -0.756121
Si 9.164109 5.350182 -5.236586
C 9.416101 7.056037 -8.711940
Si 9.164109 5.350182 -2.197695
C 9.416101 7.056037 -5.673049
Si 9.164109 5.350182 0.841195
C 9.416101 7.056037 -2.634158
