54
A
Si 1.743912 0.370738 1.558209
C 1.938160 2.121620 -1.830740
Si 1.743912 0.370738 4.610712
C 1.938160 2.121620 1.221763
Si 1.743912 0.370738 7.663215
C 1.938160 2.121620 4.274266
Si 2.782439 2.863096 -0.240572
C 2.976687 4.613978 -3.629522
Si 2.782439 2.863096 2.811930
C 2.976687 4.613978 -0.577019
Si 2.782439 2.863096 5.864433
C 2.976687 4.613978 2.475484
Si 3.820966 5.355454 -2.039354
C 4.015214 7.106336 -5.428303
Si 3.820966 5.355454 1.013149
C 4.015214 7.106336 -2.375801
Si 3.820966 5.355454 4.065652
C 4.015214 7.106336 0.676702
Si 4.387457 0.370738 0.031958
C 4.581705 2.121620 -3.356992
Si 4.387457 0.370738 3.084460
C 4.581705 2.121620 -0.304489
Si 4.387457 0.370738 6.136963
C 4.581705 2.121620 2.748014
Si 5.425984 2.863096 -1.766824
C 5.620232 4.613978 -5.155773
Si 5.425984 2.863096 1.285679
C 5.620232 4.613978 -2.103271
Si 5.425984 2.863096 4.338182
C 5.620232 4.613978 0.949232
Si 6.464511 5.355454 -3.565606
C 6.658759 7.106336 -6.954555
Si 6.464511 5.355454 -0.513103
C 6.658759 7.106336 -3.902052
Si 6.464511 5.355454 2.539400
C 6.658759 7.106336 -0.849549
Si 7.031002 0.370738 -1.494294
C 7.225250 2.121620 -4.883243
Si 7.031002 0.370738 1.558209
C 7.225250 2.121620 -1.830741
Si 7.031002 0.370738 4.610712
C 7.225250 2.121620 1.221762
Si 8.069529 2.863096 -3.293076
C 8.263777 4.613978 -6.682025
Si 8.069529 2.863096 -0.240573
C 8.263777 4.613978 -3.629522
Si 8.069529 2.863096 2.811930
C 8.263777 4.613978 -0.577019
Si 9.108056 5.355454 -5.091858
C 9.302304 7.106336 -8.480807
Si 9.108056 5.355454 -2.039355
C 9.302304 7.106336 -5.428304
Si 9.108056 5.355454 1.013148
C 9.302304 7.106336 -2.375801
