54
A
Si 1.693108 0.453851 1.544114
C 2.158814 1.982935 -2.246955
Si 1.693108 0.453851 4.528556
C 2.158814 1.982935 0.737487
Si 1.693108 0.453851 7.512998
C 2.158814 1.982935 3.721929
Si 2.960427 2.890638 -0.650948
C 3.426134 4.419722 -4.442016
Si 2.960427 2.890638 2.333494
C 3.426134 4.419722 -1.457574
Si 2.960427 2.890638 5.317936
C 3.426134 4.419722 1.526867
Si 4.227747 5.327425 -2.846009
C 4.693453 6.856508 -6.637078
Si 4.227747 5.327425 0.138433
C 4.693453 6.856508 -3.652636
Si 4.227747 5.327425 3.122874
C 4.693453 6.856508 -0.668194
Si 4.277710 0.453851 0.051893
C 4.743417 1.982935 -3.739176
Si 4.277710 0.453851 3.036335
C 4.743417 1.982935 -0.754734
Si 4.277710 0.453851 6.020777
C 4.743417 1.982935 2.229708
Si 5.545030 2.890638 -2.143169
C 6.010736 4.419722 -5.934237
Si 5.545030 2.890638 0.841273
C 6.010736 4.419722 -2.949796
Si 5.545030 2.890638 3.825715
C 6.010736 4.419722 0.034646
Si 6.812349 5.327425 -4.338230
C 7.278056 6.856508 -8.129299
Si 6.812349 5.327425 -1.353789
C 7.278056 6.856508 -5.144857
Si 6.812349 5.327425 1.630653
C 7.278056 6.856508 -2.160415
Si 6.862313 0.453851 -1.440328
C 7.328019 1.982935 -5.231397
Si 6.862313 0.453851 1.544114
C 7.328019 1.982935 -2.246955
Si 6.862313 0.453851 4.528556
C 7.328019 1.982935 0.737487
Si 8.129632 2.890638 -3.635390
C 8.595339 4.419722 -7.426458
Si 8.129632 2.890638 -0.650948
C 8.595339 4.419722 -4.442017
Si 8.129632 2.890638 2.333494
C 8.595339 4.419722 -1.457575
Si 9.396952 5.327425 -5.830452
C 9.862658 6.856508 -9.621520
Si 9.396952 5.327425 -2.846010
C 9.862658 6.856508 -6.637078
Si 9.396952 5.327425 0.138432
C 9.862658 6.856508 -3.652636
