54
A
Si 1.656902 0.575683 1.446881
C 2.461118 1.774042 -2.823874
Si 1.656902 0.575683 4.324694
C 2.461118 1.774042 0.053939
Si 1.656902 0.575683 7.202507
C 2.461118 1.774042 2.931752
Si 3.282664 2.925407 -1.369019
C 4.086879 4.123767 -5.639774
Si 3.282664 2.925407 1.508794
C 4.086879 4.123767 -2.761961
Si 3.282664 2.925407 4.386607
C 4.086879 4.123767 0.115852
Si 4.908425 5.275132 -4.184920
C 5.712640 6.473491 -8.455675
Si 4.908425 5.275132 -1.307107
C 5.712640 6.473491 -5.577862
Si 4.908425 5.275132 1.570707
C 5.712640 6.473491 -2.700049
Si 4.149162 0.575683 0.007975
C 4.953377 1.774042 -4.262781
Si 4.149162 0.575683 2.885788
C 4.953377 1.774042 -1.384967
Si 4.149162 0.575683 5.763601
C 4.953377 1.774042 1.492846
Si 5.774923 2.925407 -2.807926
C 6.579138 4.123767 -7.078681
Si 5.774923 2.925407 0.069887
C 6.579138 4.123767 -4.200868
Si 5.774923 2.925407 2.947701
C 6.579138 4.123767 -1.323055
Si 7.400684 5.275132 -5.623826
C 8.204899 6.473491 -9.894581
Si 7.400684 5.275132 -2.746013
C 8.204899 6.473491 -7.016768
Si 7.400684 5.275132 0.131800
C 8.204899 6.473491 -4.138955
Si 6.641421 0.575683 -1.430932
C 7.445636 1.774042 -5.701687
Si 6.641421 0.575683 1.446881
C 7.445636 1.774042 -2.823874
Si 6.641421 0.575683 4.324694
C 7.445636 1.774042 0.053939
Si 8.267182 2.925407 -4.246832
C 9.071397 4.123767 -8.517587
Si 8.267182 2.925407 -1.369019
C 9.071397 4.123767 -5.639774
Si 8.267182 2.925407 1.508794
C 9.071397 4.123767 -2.761961
Si 9.892943 5.275132 -7.062732
C 10.697159 6.473491 -11.333487
Si 9.892943 5.275132 -4.184919
C 10.697159 6.473491 -8.455674
Si 9.892943 5.275132 -1.307106
C 10.697159 6.473491 -5.577861
