54
A
Si 0.398392 0.483282 3.762807
C 0.952819 1.933128 1.054044
Si 0.398392 0.483282 6.722294
C 0.952819 1.933128 4.013530
Si 0.398392 0.483282 9.681780
C 0.952819 1.933128 6.973017
Si -0.813388 2.899692 2.902186
C -0.258961 4.349539 0.193423
Si -0.813388 2.899692 5.861672
C -0.258961 4.349539 3.152909
Si -0.813388 2.899692 8.821159
C -0.258961 4.349539 6.112395
Si -2.025168 5.316103 2.041565
C -1.470741 6.765949 -0.667198
Si -2.025168 5.316103 5.001051
C -1.470741 6.765949 2.292288
Si -2.025168 5.316103 7.960537
C -1.470741 6.765949 5.251774
Si 2.961382 0.483282 6.480794
C 3.515809 1.933128 3.772031
Si 2.961382 0.483282 9.440280
C 3.515809 1.933128 6.731517
Si 2.961382 0.483282 12.399766
C 3.515809 1.933128 9.691003
Si 1.749602 2.899692 5.620172
C 2.304029 4.349539 2.911409
Si 1.749602 2.899692 8.579659
C 2.304029 4.349539 5.870896
Si 1.749602 2.899692 11.539145
C 2.304029 4.349539 8.830382
Si 0.537822 5.316103 4.759551
C 1.092249 6.765949 2.050788
Si 0.537822 5.316103 7.719037
C 1.092249 6.765949 5.010274
Si 0.537822 5.316103 10.678524
C 1.092249 6.765949 7.969761
Si 5.524372 0.483282 9.198780
C 6.078799 1.933128 6.490017
Si 5.524372 0.483282 12.158266
C 6.078799 1.933128 9.449503
Si 5.524372 0.483282 15.117753
C 6.078799 1.933128 12.408989
Si 4.312592 2.899692 8.338159
C 4.867019 4.349539 5.629396
Si 4.312592 2.899692 11.297645
C 4.867019 4.349539 8.588882
Si 4.312592 2.899692 14.257131
C 4.867019 4.349539 11.548368
Si 3.100812 5.316103 7.477538
C 3.655239 6.765949 4.768775
Si 3.100812 5.316103 10.437024
C 3.655239 6.765949 7.728261
Si 3.100812 5.316103 13.396510
C 3.655239 6.765949 10.687747
