54
A
Si 1.659735 0.553145 1.472602
C 2.407330 1.813251 -2.720502
Si 1.659735 0.553145 4.370833
C 2.407330 1.813251 0.177729
Si 1.659735 0.553145 7.269065
C 2.407330 1.813251 3.075961
Si 3.216859 2.919541 -1.224415
C 3.964454 4.179647 -5.417518
Si 3.216859 2.919541 1.673817
C 3.964454 4.179647 -2.519287
Si 3.216859 2.919541 4.572048
C 3.964454 4.179647 0.378944
Si 4.773982 5.285937 -3.921431
C 5.521577 6.546043 -8.114535
Si 4.773982 5.285937 -1.023199
C 5.521577 6.546043 -5.216303
Si 4.773982 5.285937 1.875032
C 5.521577 6.546043 -2.318072
Si 4.169677 0.553145 0.023486
C 4.917272 1.813251 -4.169618
Si 4.169677 0.553145 2.921718
C 4.917272 1.813251 -1.271386
Si 4.169677 0.553145 5.819949
C 4.917272 1.813251 1.626845
Si 5.726800 2.919541 -2.673530
C 6.474396 4.179647 -6.866634
Si 5.726800 2.919541 0.224701
C 6.474396 4.179647 -3.968402
Si 5.726800 2.919541 3.122933
C 6.474396 4.179647 -1.070171
Si 7.283924 5.285937 -5.370546
C 8.031519 6.546043 -9.563650
Si 7.283924 5.285937 -2.472315
C 8.031519 6.546043 -6.665419
Si 7.283924 5.285937 0.425916
C 8.031519 6.546043 -3.767187
Si 6.679619 0.553145 -1.425629
C 7.427214 1.813251 -5.618733
Si 6.679619 0.553145 1.472602
C 7.427214 1.813251 -2.720502
Si 6.679619 0.553145 4.370834
C 7.427214 1.813251 0.177730
Si 8.236742 2.919541 -4.122646
C 8.984337 4.179647 -8.315749
Si 8.236742 2.919541 -1.224414
C 8.984337 4.179647 -5.417518
Si 8.236742 2.919541 1.673817
C 8.984337 4.179647 -2.519287
Si 9.793866 5.285937 -6.819662
C 10.541461 6.546043 -11.012766
Si 9.793866 5.285937 -3.921430
C 10.541461 6.546043 -8.114534
Si 9.793866 5.285937 -1.023199
C 10.541461 6.546043 -5.216303
