54
A
Si 1.656267 0.585579 1.434369
C 2.484400 1.756736 -2.868738
Si 1.656267 0.585579 4.303108
C 2.484400 1.756736 0.000001
Si 1.656267 0.585579 7.171846
C 2.484400 1.756736 2.868739
Si 3.312534 2.927894 -1.434368
C 4.140667 4.099051 -5.737475
Si 3.312534 2.927894 1.434370
C 4.140667 4.099051 -2.868737
Si 3.312534 2.927894 4.303109
C 4.140667 4.099051 0.000001
Si 4.968800 5.270209 -4.303106
C 5.796934 6.441366 -8.606213
Si 4.968800 5.270209 -1.434367
C 5.796934 6.441366 -5.737474
Si 4.968800 5.270209 1.434371
C 5.796934 6.441366 -2.868736
Si 4.140667 0.585579 0.000001
C 4.968800 1.756736 -4.303106
Si 4.140667 0.585579 2.868739
C 4.968800 1.756736 -1.434368
Si 4.140667 0.585579 5.737477
C 4.968800 1.756736 1.434370
Si 5.796934 2.927894 -2.868737
C 6.625067 4.099051 -7.171844
Si 5.796934 2.927894 0.000001
C 6.625067 4.099051 -4.303106
Si 5.796934 2.927894 2.868740
C 6.625067 4.099051 -1.434367
Si 7.453201 5.270209 -5.737475
C 8.281334 6.441366 -10.040582
Si 7.453201 5.270209 -2.868736
C 8.281334 6.441366 -7.171843
Si 7.453201 5.270209 0.000002
C 8.281334 6.441366 -4.303105
Si 6.625067 0.585579 -1.434368
C 7.453201 1.756736 -5.737475
Si 6.625067 0.585579 1.434370
C 7.453201 1.756736 -2.868737
Si 6.625067 0.585579 4.303108
C 7.453201 1.756736 0.000001
Si 8.281334 2.927894 -4.303106
C 9.109467 4.099051 -8.606213
Si 8.281334 2.927894 -1.434367
C 9.109467 4.099051 -5.737475
Si 8.281334 2.927894 1.434371
C 9.109467 4.099051 -2.868736
Si 9.937601 5.270209 -7.171843
C 10.765734 6.441366 -11.474950
Si 9.937601 5.270209 -4.303105
C 10.765734 6.441366 -8.606212
Si 9.937601 5.270209 -1.434367
C 10.765734 6.441366 -5.737474
