54
A
Si 0.398615 0.477973 3.769431
C 0.937342 1.942142 1.144826
Si 0.398615 0.477973 6.733454
C 0.937342 1.942142 4.108850
Si 0.398615 0.477973 9.697478
C 0.937342 1.942142 7.072874
Si -0.832348 2.898088 2.937497
C -0.293620 4.362258 0.312892
Si -0.832348 2.898088 5.901521
C -0.293620 4.362258 3.276916
Si -0.832348 2.898088 8.865544
C -0.293620 4.362258 6.240940
Si -2.063310 5.318203 2.105563
C -1.524582 6.782373 -0.519041
Si -2.063310 5.318203 5.069587
C -1.524582 6.782373 2.444982
Si -2.063310 5.318203 8.033610
C -1.524582 6.782373 5.409006
Si 2.965535 0.477973 6.551598
C 3.504262 1.942142 3.926994
Si 2.965535 0.477973 9.515622
C 3.504262 1.942142 6.891017
Si 2.965535 0.477973 12.479645
C 3.504262 1.942142 9.855041
Si 1.734572 2.898088 5.719664
C 2.273300 4.362258 3.095060
Si 1.734572 2.898088 8.683688
C 2.273300 4.362258 6.059083
Si 1.734572 2.898088 11.647711
C 2.273300 4.362258 9.023107
Si 0.503610 5.318203 4.887730
C 1.042337 6.782373 2.263126
Si 0.503610 5.318203 7.851754
C 1.042337 6.782373 5.227150
Si 0.503610 5.318203 10.815778
C 1.042337 6.782373 8.191173
Si 5.532454 0.477973 9.333765
C 6.071182 1.942142 6.709161
Si 5.532454 0.477973 12.297789
C 6.071182 1.942142 9.673184
Si 5.532454 0.477973 15.261812
C 6.071182 1.942142 12.637208
Si 4.301492 2.898088 8.501831
C 4.840220 4.362258 5.877227
Si 4.301492 2.898088 11.465855
C 4.840220 4.362258 8.841251
Si 4.301492 2.898088 14.429879
C 4.840220 4.362258 11.805274
Si 3.070530 5.318203 7.669898
C 3.609257 6.782373 5.045293
Si 3.070530 5.318203 10.633921
C 3.609257 6.782373 8.009317
Si 3.070530 5.318203 13.597945
C 3.609257 6.782373 10.973340
