54
A
Si 0.401557 0.448440 3.802079
C 0.850509 1.992051 1.647909
Si 0.401557 0.448440 6.791059
C 0.850509 1.992051 4.636888
Si 0.401557 0.448440 9.780038
C 0.850509 1.992051 7.625867
Si -0.934908 2.888932 3.127926
C -0.485956 4.432542 0.973755
Si -0.934908 2.888932 6.116905
C -0.485956 4.432542 3.962735
Si -0.934908 2.888932 9.105885
C -0.485956 4.432542 6.951714
Si -2.271373 5.329423 2.453773
C -1.822421 6.873034 0.299602
Si -2.271373 5.329423 5.442752
C -1.822421 6.873034 3.288581
Si -2.271373 5.329423 8.431732
C -1.822421 6.873034 6.277561
Si 2.990089 0.448440 6.937241
C 3.439041 1.992051 4.783070
Si 2.990089 0.448440 9.926221
C 3.439041 1.992051 7.772050
Si 2.990089 0.448440 12.915200
C 3.439041 1.992051 10.761029
Si 1.653624 2.888932 6.263088
C 2.102576 4.432542 4.108917
Si 1.653624 2.888932 9.252067
C 2.102576 4.432542 7.097897
Si 1.653624 2.888932 12.241047
C 2.102576 4.432542 10.086876
Si 0.317159 5.329423 5.588935
C 0.766111 6.873034 3.434764
Si 0.317159 5.329423 8.577914
C 0.766111 6.873034 6.423743
Si 0.317159 5.329423 11.566893
C 0.766111 6.873034 9.412723
Si 5.578621 0.448440 10.072403
C 6.027573 1.992051 7.918232
Si 5.578621 0.448440 13.061382
C 6.027573 1.992051 10.907212
Si 5.578621 0.448440 16.050362
C 6.027573 1.992051 13.896191
Si 4.242156 2.888932 9.398250
C 4.691108 4.432542 7.244079
Si 4.242156 2.888932 12.387229
C 4.691108 4.432542 10.233058
Si 4.242156 2.888932 15.376209
C 4.691108 4.432542 13.222038
Si 2.905691 5.329423 8.724097
C 3.354643 6.873034 6.569926
Si 2.905691 5.329423 11.713076
C 3.354643 6.873034 9.558905
Si 2.905691 5.329423 14.702055
C 3.354643 6.873034 12.547884
