54
A
Si 1.763362 0.344992 1.555149
C 1.867755 2.164038 -1.698587
Si 1.763362 0.344992 4.628070
C 1.867755 2.164038 1.374334
Si 1.763362 0.344992 7.700992
C 1.867755 2.164038 4.447255
Si 2.733251 2.854021 -0.124748
C 2.837645 4.673067 -3.378485
Si 2.733251 2.854021 2.948173
C 2.837645 4.673067 -0.305563
Si 2.733251 2.854021 6.021094
C 2.837645 4.673067 2.767358
Si 3.703140 5.363050 -1.804646
C 3.807534 7.182097 -5.058382
Si 3.703140 5.363050 1.268275
C 3.807534 7.182097 -1.985461
Si 3.703140 5.363050 4.341196
C 3.807534 7.182097 1.087460
Si 4.424589 0.344992 0.018688
C 4.528983 2.164038 -3.235048
Si 4.424589 0.344992 3.091609
C 4.528983 2.164038 -0.162127
Si 4.424589 0.344992 6.164531
C 4.528983 2.164038 2.910794
Si 5.394479 2.854021 -1.661209
C 5.498872 4.673067 -4.914946
Si 5.394479 2.854021 1.411712
C 5.498872 4.673067 -1.842024
Si 5.394479 2.854021 4.484633
C 5.498872 4.673067 1.230897
Si 6.364368 5.363050 -3.341107
C 6.468762 7.182097 -6.594843
Si 6.364368 5.363050 -0.268186
C 6.468762 7.182097 -3.521922
Si 6.364368 5.363050 2.804735
C 6.468762 7.182097 -0.449001
Si 7.085817 0.344992 -1.517773
C 7.190211 2.164038 -4.771509
Si 7.085817 0.344992 1.555149
C 7.190211 2.164038 -1.698588
Si 7.085817 0.344992 4.628070
C 7.190211 2.164038 1.374334
Si 8.055706 2.854021 -3.197670
C 8.160100 4.673067 -6.451407
Si 8.055706 2.854021 -0.124749
C 8.160100 4.673067 -3.378485
Si 8.055706 2.854021 2.948172
C 8.160100 4.673067 -0.305564
Si 9.025596 5.363050 -4.877568
C 9.129989 7.182097 -8.131304
Si 9.025596 5.363050 -1.804647
C 9.129989 7.182097 -5.058383
Si 9.025596 5.363050 1.268274
C 9.129989 7.182097 -1.985462
