54
A
Si 0.413474 0.396110 3.843403
C 0.693691 2.079577 2.531938
Si 0.413474 0.396110 6.875488
C 0.693691 2.079577 5.564023
Si 0.413474 0.396110 9.907572
C 0.693691 2.079577 8.596107
Si -1.105223 2.871796 3.441780
C -0.825006 4.555263 2.130315
Si -1.105223 2.871796 6.473865
C -0.825006 4.555263 5.162400
Si -1.105223 2.871796 9.505949
C -0.825006 4.555263 8.194484
Si -2.623921 5.347483 3.040157
C -2.343704 7.030950 1.728692
Si -2.623921 5.347483 6.072241
C -2.343704 7.030950 4.760776
Si -2.623921 5.347483 9.104326
C -2.343704 7.030950 7.792861
Si 3.039336 0.396110 7.588283
C 3.319553 2.079577 6.276818
Si 3.039336 0.396110 10.620368
C 3.319553 2.079577 9.308903
Si 3.039336 0.396110 13.652452
C 3.319553 2.079577 12.340987
Si 1.520639 2.871796 7.186660
C 1.800856 4.555263 5.875195
Si 1.520639 2.871796 10.218745
C 1.800856 4.555263 8.907279
Si 1.520639 2.871796 13.250829
C 1.800856 4.555263 11.939364
Si 0.001941 5.347483 6.785037
C 0.282158 7.030950 5.473572
Si 0.001941 5.347483 9.817121
C 0.282158 7.030950 8.505656
Si 0.001941 5.347483 12.849206
C 0.282158 7.030950 11.537741
Si 5.665198 0.396110 11.333163
C 5.945415 2.079577 10.021698
Si 5.665198 0.396110 14.365248
C 5.945415 2.079577 13.053783
Si 5.665198 0.396110 17.397332
C 5.945415 2.079577 16.085867
Si 4.146501 2.871796 10.931540
C 4.426718 4.555263 9.620075
Si 4.146501 2.871796 13.963624
C 4.426718 4.555263 12.652159
Si 4.146501 2.871796 16.995709
C 4.426718 4.555263 15.684244
Si 2.627804 5.347483 10.529917
C 2.908021 7.030950 9.218452
Si 2.627804 5.347483 13.562001
C 2.908021 7.030950 12.250536
Si 2.627804 5.347483 16.594086
C 2.908021 7.030950 15.282621
