54
A
Si 1.657631 0.568212 1.455828
C 2.443405 1.787070 -2.789791
Si 1.657631 0.568212 4.340447
C 2.443405 1.787070 0.094829
Si 1.657631 0.568212 7.225067
C 2.443405 1.787070 2.979448
Si 3.260513 2.923493 -1.320444
C 4.046286 4.142352 -5.566063
Si 3.260513 2.923493 1.564175
C 4.046286 4.142352 -2.681444
Si 3.260513 2.923493 4.448794
C 4.046286 4.142352 0.203176
Si 4.863395 5.278775 -4.096716
C 5.649168 6.497633 -8.342335
Si 4.863395 5.278775 -1.212097
C 5.649168 6.497633 -5.457716
Si 4.863395 5.278775 1.672522
C 5.649168 6.497633 -2.573097
Si 4.155784 0.568212 0.013519
C 4.941558 1.787070 -4.232100
Si 4.155784 0.568212 2.898138
C 4.941558 1.787070 -1.347481
Si 4.155784 0.568212 5.782757
C 4.941558 1.787070 1.537138
Si 5.758666 2.923493 -2.762753
C 6.544440 4.142352 -7.008372
Si 5.758666 2.923493 0.121866
C 6.544440 4.142352 -4.123753
Si 5.758666 2.923493 3.006485
C 6.544440 4.142352 -1.239134
Si 7.361548 5.278775 -5.539026
C 8.147322 6.497633 -9.784645
Si 7.361548 5.278775 -2.654406
C 8.147322 6.497633 -6.900025
Si 7.361548 5.278775 0.230213
C 8.147322 6.497633 -4.015406
Si 6.653938 0.568212 -1.428790
C 7.439711 1.787070 -5.674409
Si 6.653938 0.568212 1.455829
C 7.439711 1.787070 -2.789790
Si 6.653938 0.568212 4.340448
C 7.439711 1.787070 0.094829
Si 8.256820 2.923493 -4.205063
C 9.042593 4.142352 -8.450682
Si 8.256820 2.923493 -1.320444
C 9.042593 4.142352 -5.566062
Si 8.256820 2.923493 1.564176
C 9.042593 4.142352 -2.681443
Si 9.859701 5.278775 -6.981335
C 10.645475 6.497633 -11.226954
Si 9.859701 5.278775 -4.096716
C 10.645475 6.497633 -8.342335
Si 9.859701 5.278775 -1.212097
C 10.645475 6.497633 -5.457715
