54
A
Si 0.403854 0.434831 3.814805
C 0.810080 2.014922 1.878697
Si 0.403854 0.434831 6.815127
C 0.810080 2.014922 4.879020
Si 0.403854 0.434831 9.815450
C 0.810080 2.014922 7.879343
Si -0.980567 2.884584 3.212370
C -0.574341 4.464675 1.276263
Si -0.980567 2.884584 6.212693
C -0.574341 4.464675 4.276585
Si -0.980567 2.884584 9.213015
C -0.574341 4.464675 7.276908
Si -2.364988 5.334338 2.609935
C -1.958762 6.914429 0.673828
Si -2.364988 5.334338 5.610258
C -1.958762 6.914429 3.674151
Si -2.364988 5.334338 8.610581
C -1.958762 6.914429 6.674473
Si 3.002210 0.434831 7.110419
C 3.408436 2.014922 5.174311
Si 3.002210 0.434831 10.110741
C 3.408436 2.014922 8.174634
Si 3.002210 0.434831 13.111064
C 3.408436 2.014922 11.174957
Si 1.617789 2.884584 6.507984
C 2.024015 4.464675 4.571876
Si 1.617789 2.884584 9.508307
C 2.024015 4.464675 7.572199
Si 1.617789 2.884584 12.508629
C 2.024015 4.464675 10.572522
Si 0.233368 5.334338 5.905549
C 0.639594 6.914429 3.969442
Si 0.233368 5.334338 8.905872
C 0.639594 6.914429 6.969765
Si 0.233368 5.334338 11.906195
C 0.639594 6.914429 9.970087
Si 5.600566 0.434831 10.406033
C 6.006792 2.014922 8.469925
Si 5.600566 0.434831 13.406355
C 6.006792 2.014922 11.470248
Si 5.600566 0.434831 16.406678
C 6.006792 2.014922 14.470571
Si 4.216145 2.884584 9.803598
C 4.622371 4.464675 7.867490
Si 4.216145 2.884584 12.803921
C 4.622371 4.464675 10.867813
Si 4.216145 2.884584 15.804243
C 4.622371 4.464675 13.868136
Si 2.831724 5.334338 9.201163
C 3.237950 6.914429 7.265056
Si 2.831724 5.334338 12.201486
C 3.237950 6.914429 10.265378
Si 2.831724 5.334338 15.201809
C 3.237950 6.914429 13.265701
