54
A
Si 1.663884 0.532797 1.492641
C 2.357888 1.848418 -2.625792
Si 1.663884 0.532797 4.409022
C 2.357888 1.848418 0.290589
Si 1.663884 0.532797 7.325403
C 2.357888 1.848418 3.206970
Si 3.159996 2.914012 -1.098701
C 3.854000 4.229633 -5.217133
Si 3.159996 2.914012 1.817680
C 3.854000 4.229633 -2.300752
Si 3.159996 2.914012 4.734061
C 3.854000 4.229633 0.615629
Si 4.656108 5.295227 -3.690043
C 5.350113 6.610848 -7.808475
Si 4.656108 5.295227 -0.773662
C 5.350113 6.610848 -4.892094
Si 4.656108 5.295227 2.142719
C 5.350113 6.610848 -1.975713
Si 4.189544 0.532797 0.034450
C 4.883548 1.848418 -4.083982
Si 4.189544 0.532797 2.950831
C 4.883548 1.848418 -1.167601
Si 4.189544 0.532797 5.867212
C 4.883548 1.848418 1.748780
Si 5.685656 2.914012 -2.556891
C 6.379660 4.229633 -6.675324
Si 5.685656 2.914012 0.359490
C 6.379660 4.229633 -3.758943
Si 5.685656 2.914012 3.275871
C 6.379660 4.229633 -0.842562
Si 7.181768 5.295227 -5.148233
C 7.875772 6.610848 -9.266665
Si 7.181768 5.295227 -2.231852
C 7.875772 6.610848 -6.350284
Si 7.181768 5.295227 0.684529
C 7.875772 6.610848 -3.433903
Si 6.715203 0.532797 -1.423740
C 7.409208 1.848418 -5.542172
Si 6.715203 0.532797 1.492641
C 7.409208 1.848418 -2.625791
Si 6.715203 0.532797 4.409022
C 7.409208 1.848418 0.290590
Si 8.211316 2.914012 -4.015082
C 8.905320 4.229633 -8.133514
Si 8.211316 2.914012 -1.098701
C 8.905320 4.229633 -5.217133
Si 8.211316 2.914012 1.817680
C 8.905320 4.229633 -2.300752
Si 9.707428 5.295227 -6.606423
C 10.401432 6.610848 -10.724856
Si 9.707428 5.295227 -3.690042
C 10.401432 6.610848 -7.808475
Si 9.707428 5.295227 -0.773661
C 10.401432 6.610848 -4.892094
