54
A
Si 0.399860 0.461934 3.788032
C 0.890339 1.969296 1.418442
Si 0.399860 0.461934 6.765668
C 0.890339 1.969296 4.396078
Si 0.399860 0.461934 9.743304
C 0.890339 1.969296 7.373713
Si -0.888649 2.893163 3.042161
C -0.398171 4.400525 0.672570
Si -0.888649 2.893163 6.019796
C -0.398171 4.400525 3.650206
Si -0.888649 2.893163 8.997432
C -0.398171 4.400525 6.627842
Si -2.177158 5.324392 2.296289
C -1.686680 6.831755 -0.073302
Si -2.177158 5.324392 5.273925
C -1.686680 6.831755 2.904334
Si -2.177158 5.324392 8.251560
C -1.686680 6.831755 5.881970
Si 2.978568 0.461934 6.762742
C 3.469047 1.969296 4.393151
Si 2.978568 0.461934 9.740378
C 3.469047 1.969296 7.370787
Si 2.978568 0.461934 12.718014
C 3.469047 1.969296 10.348423
Si 1.690059 2.893163 6.016870
C 2.180537 4.400525 3.647280
Si 1.690059 2.893163 8.994506
C 2.180537 4.400525 6.624916
Si 1.690059 2.893163 11.972142
C 2.180537 4.400525 9.602551
Si 0.401550 5.324392 5.270999
C 0.892028 6.831755 2.901408
Si 0.401550 5.324392 8.248634
C 0.892028 6.831755 5.879044
Si 0.401550 5.324392 11.226270
C 0.892028 6.831755 8.856680
Si 5.557277 0.461934 9.737452
C 6.047755 1.969296 7.367861
Si 5.557277 0.461934 12.715088
C 6.047755 1.969296 10.345497
Si 5.557277 0.461934 15.692723
C 6.047755 1.969296 13.323133
Si 4.268767 2.893163 8.991580
C 4.759246 4.400525 6.621990
Si 4.268767 2.893163 11.969216
C 4.759246 4.400525 9.599625
Si 4.268767 2.893163 14.946852
C 4.759246 4.400525 12.577261
Si 2.980258 5.324392 8.245708
C 3.470736 6.831755 5.876118
Si 2.980258 5.324392 11.223344
C 3.470736 6.831755 8.853754
Si 2.980258 5.324392 14.200980
C 3.470736 6.831755 11.831389
