54
A
Si 1.665161 0.527663 1.497235
C 2.345288 1.857256 -2.601699
Si 1.665161 0.527663 4.418153
C 2.345288 1.857256 0.319220
Si 1.665161 0.527663 7.339072
C 2.345288 1.857256 3.240138
Si 3.146020 2.912583 -1.067688
C 3.826147 4.242176 -5.166622
Si 3.146020 2.912583 1.853230
C 3.826147 4.242176 -2.245703
Si 3.146020 2.912583 4.774149
C 3.826147 4.242176 0.675215
Si 4.626879 5.297503 -3.632611
C 5.307007 6.627096 -7.731545
Si 4.626879 5.297503 -0.711692
C 5.307007 6.627096 -4.810626
Si 4.626879 5.297503 2.209226
C 5.307007 6.627096 -1.889708
Si 4.194750 0.527663 0.036776
C 4.874878 1.857256 -4.062158
Si 4.194750 0.527663 2.957694
C 4.874878 1.857256 -1.141239
Si 4.194750 0.527663 5.878613
C 4.874878 1.857256 1.779679
Si 5.675609 2.912583 -2.528147
C 6.355737 4.242176 -6.627081
Si 5.675609 2.912583 0.392771
C 6.355737 4.242176 -3.706162
Si 5.675609 2.912583 3.313690
C 6.355737 4.242176 -0.785244
Si 7.156468 5.297503 -5.093070
C 7.836596 6.627096 -9.192004
Si 7.156468 5.297503 -2.172152
C 7.836596 6.627096 -6.271085
Si 7.156468 5.297503 0.748767
C 7.836596 6.627096 -3.350167
Si 6.724339 0.527663 -1.423683
C 7.404467 1.857256 -5.522617
Si 6.724339 0.527663 1.497235
C 7.404467 1.857256 -2.601698
Si 6.724339 0.527663 4.418154
C 7.404467 1.857256 0.319220
Si 8.205199 2.912583 -3.988606
C 8.885326 4.242176 -8.087540
Si 8.205199 2.912583 -1.067688
C 8.885326 4.242176 -5.166621
Si 8.205199 2.912583 1.853231
C 8.885326 4.242176 -2.245703
Si 9.686058 5.297503 -6.553529
C 10.366185 6.627096 -10.652463
Si 9.686058 5.297503 -3.632611
C 10.366185 6.627096 -7.731544
Si 9.686058 5.297503 -0.711692
C 10.366185 6.627096 -4.810626
