54
A
Si 1.697217 0.445728 1.547205
C 2.137720 1.996616 -2.207015
Si 1.697217 0.445728 4.538453
C 2.137720 1.996616 0.784233
Si 1.697217 0.445728 7.529702
C 2.137720 1.996616 3.775481
Si 2.941658 2.888071 -0.608228
C 3.382160 4.438960 -4.362449
Si 2.941658 2.888071 2.383020
C 3.382160 4.438960 -1.371201
Si 2.941658 2.888071 5.374268
C 3.382160 4.438960 1.620047
Si 4.186098 5.330415 -2.763662
C 4.626600 6.881303 -6.517883
Si 4.186098 5.330415 0.227586
C 4.626600 6.881303 -3.526635
Si 4.186098 5.330415 3.218834
C 4.626600 6.881303 -0.535387
Si 4.287714 0.445728 0.051581
C 4.728216 1.996616 -3.702639
Si 4.287714 0.445728 3.042829
C 4.728216 1.996616 -0.711391
Si 4.287714 0.445728 6.034077
C 4.728216 1.996616 2.279857
Si 5.532154 2.888071 -2.103852
C 5.972657 4.438960 -5.858073
Si 5.532154 2.888071 0.887396
C 5.972657 4.438960 -2.866825
Si 5.532154 2.888071 3.878644
C 5.972657 4.438960 0.124423
Si 6.776595 5.330415 -4.259286
C 7.217097 6.881303 -8.013507
Si 6.776595 5.330415 -1.268038
C 7.217097 6.881303 -5.022259
Si 6.776595 5.330415 1.723210
C 7.217097 6.881303 -2.031011
Si 6.878211 0.445728 -1.444043
C 7.318713 1.996616 -5.198263
Si 6.878211 0.445728 1.547205
C 7.318713 1.996616 -2.207015
Si 6.878211 0.445728 4.538453
C 7.318713 1.996616 0.784233
Si 8.122651 2.888071 -3.599476
C 8.563154 4.438960 -7.353697
Si 8.122651 2.888071 -0.608228
C 8.563154 4.438960 -4.362449
Si 8.122651 2.888071 2.383020
C 8.563154 4.438960 -1.371201
Si 9.367091 5.330415 -5.754910
C 9.807594 6.881303 -9.509131
Si 9.367091 5.330415 -2.763662
C 9.807594 6.881303 -6.517883
Si 9.367091 5.330415 0.227586
C 9.807594 6.881303 -3.526635
