54
A
Si 0.438086 0.333428 3.867405
C 0.501298 2.183011 3.579398
Si 0.438086 0.333428 6.949401
C 0.501298 2.183011 6.661394
Si 0.438086 0.333428 10.031397
C 0.501298 2.183011 9.743390
Si -1.291617 2.849867 3.781343
C -1.228405 4.699450 3.493336
Si -1.291617 2.849867 6.863339
C -1.228405 4.699450 6.575332
Si -1.291617 2.849867 9.945335
C -1.228405 4.699450 9.657328
Si -3.021320 5.366306 3.695281
C -2.958108 7.215889 3.407274
Si -3.021320 5.366306 6.777277
C -2.958108 7.215889 6.489270
Si -3.021320 5.366306 9.859273
C -2.958108 7.215889 9.571265
Si 3.107173 0.333428 8.318275
C 3.170384 2.183011 8.030267
Si 3.107173 0.333428 11.400271
C 3.170384 2.183011 11.112263
Si 3.107173 0.333428 14.482267
C 3.170384 2.183011 14.194259
Si 1.377470 2.849867 8.232213
C 1.440681 4.699450 7.944205
Si 1.377470 2.849867 11.314209
C 1.440681 4.699450 11.026201
Si 1.377470 2.849867 14.396205
C 1.440681 4.699450 14.108197
Si -0.352233 5.366306 8.146151
C -0.289022 7.215889 7.858143
Si -0.352233 5.366306 11.228147
C -0.289022 7.215889 10.940139
Si -0.352233 5.366306 14.310143
C -0.289022 7.215889 14.022135
Si 5.776259 0.333428 12.769144
C 5.839471 2.183011 12.481136
Si 5.776259 0.333428 15.851140
C 5.839471 2.183011 15.563132
Si 5.776259 0.333428 18.933136
C 5.839471 2.183011 18.645128
Si 4.046556 2.849867 12.683082
C 4.109768 4.699450 12.395074
Si 4.046556 2.849867 15.765078
C 4.109768 4.699450 15.477070
Si 4.046556 2.849867 18.847074
C 4.109768 4.699450 18.559066
Si 2.316853 5.366306 12.597020
C 2.380065 7.215889 12.309012
Si 2.316853 5.366306 15.679016
C 2.380065 7.215889 15.391008
Si 2.316853 5.366306 18.761012
C 2.380065 7.215889 18.473004
