54
A
Si 1.701542 0.437562 1.549923
C 2.116410 2.010339 -2.166702
Si 1.701542 0.437562 4.547977
C 2.116410 2.010339 0.831352
Si 1.701542 0.437562 7.546031
C 2.116410 2.010339 3.829406
Si 2.923103 2.885463 -0.565882
C 3.337971 4.458239 -4.282508
Si 2.923103 2.885463 2.432172
C 3.337971 4.458239 -1.284454
Si 2.923103 2.885463 5.430226
C 3.337971 4.458239 1.713601
Si 4.144665 5.333364 -2.681688
C 4.559532 6.906140 -6.398313
Si 4.144665 5.333364 0.316366
C 4.559532 6.906140 -3.400259
Si 4.144665 5.333364 3.314420
C 4.559532 6.906140 -0.402205
Si 4.297933 0.437562 0.050896
C 4.712801 2.010339 -3.665729
Si 4.297933 0.437562 3.048950
C 4.712801 2.010339 -0.667675
Si 4.297933 0.437562 6.047004
C 4.712801 2.010339 2.330379
Si 5.519494 2.885463 -2.064910
C 5.934362 4.458239 -5.781535
Si 5.519494 2.885463 0.933144
C 5.934362 4.458239 -2.783481
Si 5.519494 2.885463 3.931199
C 5.934362 4.458239 0.214573
Si 6.741055 5.333364 -4.180715
C 7.155923 6.906140 -7.897341
Si 6.741055 5.333364 -1.182661
C 7.155923 6.906140 -4.899286
Si 6.741055 5.333364 1.815393
C 7.155923 6.906140 -1.901232
Si 6.894324 0.437562 -1.448131
C 7.309192 2.010339 -5.164756
Si 6.894324 0.437562 1.549923
C 7.309192 2.010339 -2.166702
Si 6.894324 0.437562 4.547977
C 7.309192 2.010339 0.831352
Si 8.115885 2.885463 -3.563937
C 8.530753 4.458239 -7.280562
Si 8.115885 2.885463 -0.565883
C 8.530753 4.458239 -4.282508
Si 8.115885 2.885463 2.432171
C 8.530753 4.458239 -1.284454
Si 9.337446 5.333364 -5.679743
C 9.752314 6.906140 -9.396368
Si 9.337446 5.333364 -2.681688
C 9.752314 6.906140 -6.398314
Si 9.337446 5.333364 0.316366
C 9.752314 6.906140 -3.400260
