54
A
Si 1.700077 0.440289 1.549059
C 2.123537 2.005760 -2.180181
Si 1.700077 0.440289 4.544844
C 2.123537 2.005760 0.815604
Si 1.700077 0.440289 7.540630
C 2.123537 2.005760 3.811390
Si 2.929264 2.886337 -0.579956
C 3.352725 4.451808 -4.309196
Si 2.929264 2.886337 2.415829
C 3.352725 4.451808 -1.313411
Si 2.929264 2.886337 5.411615
C 3.352725 4.451808 1.682375
Si 4.158452 5.332386 -2.708971
C 4.581912 6.897857 -6.438211
Si 4.158452 5.332386 0.286814
C 4.581912 6.897857 -3.442426
Si 4.158452 5.332386 3.282600
C 4.581912 6.897857 -0.446640
Si 4.294503 0.440289 0.051166
C 4.717963 2.005760 -3.678074
Si 4.294503 0.440289 3.046951
C 4.717963 2.005760 -0.682289
Si 4.294503 0.440289 6.042737
C 4.717963 2.005760 2.313497
Si 5.523690 2.886337 -2.077849
C 5.947151 4.451808 -5.807089
Si 5.523690 2.886337 0.917936
C 5.947151 4.451808 -2.811304
Si 5.523690 2.886337 3.913722
C 5.947151 4.451808 0.184482
Si 6.752878 5.332386 -4.206864
C 7.176338 6.897857 -7.936104
Si 6.752878 5.332386 -1.211079
C 7.176338 6.897857 -4.940319
Si 6.752878 5.332386 1.784707
C 7.176338 6.897857 -1.944533
Si 6.888929 0.440289 -1.446727
C 7.312389 2.005760 -5.175967
Si 6.888929 0.440289 1.549059
C 7.312389 2.005760 -2.180182
Si 6.888929 0.440289 4.544844
C 7.312389 2.005760 0.815604
Si 8.118117 2.886337 -3.575742
C 8.541577 4.451808 -7.304982
Si 8.118117 2.886337 -0.579956
C 8.541577 4.451808 -4.309197
Si 8.118117 2.886337 2.415829
C 8.541577 4.451808 -1.313411
Si 9.347304 5.332386 -5.704757
C 9.770764 6.897857 -9.433997
Si 9.347304 5.332386 -2.708971
C 9.770764 6.897857 -6.438212
Si 9.347304 5.332386 0.286814
C 9.770764 6.897857 -3.442426
