54
A
Si 1.672984 0.501719 1.517715
C 2.280848 1.901725 -2.478742
Si 1.672984 0.501719 4.461321
C 2.280848 1.901725 0.464863
Si 1.672984 0.501719 7.404926
C 2.280848 1.901725 3.408469
Si 3.077579 2.905163 -0.915114
C 3.685443 4.305168 -4.911572
Si 3.077579 2.905163 2.028491
C 3.685443 4.305168 -1.967966
Si 3.077579 2.905163 4.972096
C 3.685443 4.305168 0.975639
Si 4.482174 5.308606 -3.347944
C 5.090038 6.708612 -7.344402
Si 4.482174 5.308606 -0.404339
C 5.090038 6.708612 -4.400796
Si 4.482174 5.308606 2.539267
C 5.090038 6.708612 -1.457191
Si 4.222221 0.501719 0.045913
C 4.830085 1.901725 -3.950545
Si 4.222221 0.501719 2.989518
C 4.830085 1.901725 -1.006939
Si 4.222221 0.501719 5.933123
C 4.830085 1.901725 1.936666
Si 5.626816 2.905163 -2.386917
C 6.234680 4.305168 -6.383374
Si 5.626816 2.905163 0.556688
C 6.234680 4.305168 -3.439769
Si 5.626816 2.905163 3.500294
C 6.234680 4.305168 -0.496164
Si 7.031411 5.308606 -4.819747
C 7.639275 6.708612 -8.816204
Si 7.031411 5.308606 -1.876141
C 7.639275 6.708612 -5.872599
Si 7.031411 5.308606 1.067464
C 7.639275 6.708612 -2.928993
Si 6.771458 0.501719 -1.425890
C 7.379322 1.901725 -5.422347
Si 6.771458 0.501719 1.517715
C 7.379322 1.901725 -2.478742
Si 6.771458 0.501719 4.461321
C 7.379322 1.901725 0.464863
Si 8.176053 2.905163 -3.858720
C 8.783917 4.305168 -7.855177
Si 8.176053 2.905163 -0.915114
C 8.783917 4.305168 -4.911572
Si 8.176053 2.905163 2.028491
C 8.783917 4.305168 -1.967966
Si 9.580648 5.308606 -6.291549
C 10.188512 6.708612 -10.288007
Si 9.580648 5.308606 -3.347944
C 10.188512 6.708612 -7.344401
Si 9.580648 5.308606 -0.404339
C 10.188512 6.708612 -4.400796
