54
A
Si 0.407401 0.418347 3.828330
C 0.760775 2.042520 2.157389
Si 0.407401 0.418347 6.842265
C 0.760775 2.042520 5.171324
Si 0.407401 0.418347 9.856200
C 0.760775 2.042520 8.185259
Si -1.034567 2.879215 3.311958
C -0.681193 4.503388 1.641016
Si -1.034567 2.879215 6.325893
C -0.681193 4.503388 4.654951
Si -1.034567 2.879215 9.339828
C -0.681193 4.503388 7.668886
Si -2.476535 5.340083 2.795585
C -2.123161 6.964255 1.124643
Si -2.476535 5.340083 5.809520
C -2.123161 6.964255 4.138578
Si -2.476535 5.340083 8.823455
C -2.123161 6.964255 7.152513
Si 3.017546 0.418347 7.316487
C 3.370919 2.042520 5.645545
Si 3.017546 0.418347 10.330422
C 3.370919 2.042520 8.659480
Si 3.017546 0.418347 13.344357
C 3.370919 2.042520 11.673415
Si 1.575578 2.879215 6.800114
C 1.928951 4.503388 5.129173
Si 1.575578 2.879215 9.814049
C 1.928951 4.503388 8.143108
Si 1.575578 2.879215 12.827984
C 1.928951 4.503388 11.157043
Si 0.133610 5.340083 6.283741
C 0.486983 6.964255 4.612800
Si 0.133610 5.340083 9.297676
C 0.486983 6.964255 7.626735
Si 0.133610 5.340083 12.311611
C 0.486983 6.964255 10.640670
Si 5.627690 0.418347 10.804643
C 5.981063 2.042520 9.133702
Si 5.627690 0.418347 13.818578
C 5.981063 2.042520 12.147637
Si 5.627690 0.418347 16.832513
C 5.981063 2.042520 15.161572
Si 4.185722 2.879215 10.288271
C 4.539095 4.503388 8.617329
Si 4.185722 2.879215 13.302206
C 4.539095 4.503388 11.631264
Si 4.185722 2.879215 16.316141
C 4.539095 4.503388 14.645199
Si 2.743754 5.340083 9.771898
C 3.097127 6.964255 8.100956
Si 2.743754 5.340083 12.785833
C 3.097127 6.964255 11.114891
Si 2.743754 5.340083 15.799768
C 3.097127 6.964255 14.128826
