54
A
Si 0.425460 0.362198 3.859668
C 0.590188 2.135718 3.100107
Si 0.425460 0.362198 6.918977
C 0.590188 2.135718 6.159416
Si 0.425460 0.362198 9.978286
C 0.590188 2.135718 9.218725
Si -1.208331 2.860113 3.630169
C -1.043604 4.633633 2.870608
Si -1.208331 2.860113 6.689478
C -1.043604 4.633633 5.929917
Si -1.208331 2.860113 9.748787
C -1.043604 4.633633 8.989226
Si -2.842123 5.358028 3.400670
C -2.677395 7.131548 2.641109
Si -2.842123 5.358028 6.459979
C -2.677395 7.131548 5.700418
Si -2.842123 5.358028 9.519288
C -2.677395 7.131548 8.759727
Si 3.074899 0.362198 7.989633
C 3.239627 2.135718 7.230072
Si 3.074899 0.362198 11.048942
C 3.239627 2.135718 10.289381
Si 3.074899 0.362198 14.108251
C 3.239627 2.135718 13.348690
Si 1.441108 2.860113 7.760134
C 1.605836 4.633633 7.000573
Si 1.441108 2.860113 10.819443
C 1.605836 4.633633 10.059882
Si 1.441108 2.860113 13.878752
C 1.605836 4.633633 13.119191
Si -0.192683 5.358028 7.530635
C -0.027956 7.131548 6.771074
Si -0.192683 5.358028 10.589944
C -0.027956 7.131548 9.830383
Si -0.192683 5.358028 13.649253
C -0.027956 7.131548 12.889692
Si 5.724338 0.362198 12.119598
C 5.889066 2.135718 11.360037
Si 5.724338 0.362198 15.178907
C 5.889066 2.135718 14.419346
Si 5.724338 0.362198 18.238216
C 5.889066 2.135718 17.478655
Si 4.090547 2.860113 11.890099
C 4.255275 4.633633 11.130538
Si 4.090547 2.860113 14.949408
C 4.255275 4.633633 14.189847
Si 4.090547 2.860113 18.008717
C 4.255275 4.633633 17.249156
Si 2.456756 5.358028 11.660600
C 2.621483 7.131548 10.901039
Si 2.456756 5.358028 14.719909
C 2.621483 7.131548 13.960348
Si 2.456756 5.358028 17.779218
C 2.621483 7.131548 17.019657
