54
A
Si 1.671227 0.506945 1.513951
C 2.293928 1.892794 -2.503666
Si 1.671227 0.506945 4.453019
C 2.293928 1.892794 0.435402
Si 1.671227 0.506945 7.392087
C 2.293928 1.892794 3.374470
Si 3.091075 2.906684 -0.945297
C 3.713776 4.292533 -4.962914
Si 3.091075 2.906684 1.993771
C 3.713776 4.292533 -2.023846
Si 3.091075 2.906684 4.932839
C 3.713776 4.292533 0.915222
Si 4.510923 5.306423 -3.404545
C 5.133624 6.692272 -7.422162
Si 4.510923 5.306423 -0.465477
C 5.133624 6.692272 -4.483094
Si 4.510923 5.306423 2.473591
C 5.133624 6.692272 -1.544026
Si 4.216535 0.506945 0.044418
C 4.839236 1.892794 -3.973200
Si 4.216535 0.506945 2.983486
C 4.839236 1.892794 -1.034132
Si 4.216535 0.506945 5.922554
C 4.839236 1.892794 1.904936
Si 5.636383 2.906684 -2.414831
C 6.259083 4.292533 -6.432448
Si 5.636383 2.906684 0.524237
C 6.259083 4.292533 -3.493380
Si 5.636383 2.906684 3.463305
C 6.259083 4.292533 -0.554312
Si 7.056230 5.306423 -4.874079
C 7.678931 6.692272 -8.891696
Si 7.056230 5.306423 -1.935011
C 7.678931 6.692272 -5.952628
Si 7.056230 5.306423 1.004057
C 7.678931 6.692272 -3.013560
Si 6.761842 0.506945 -1.425116
C 7.384543 1.892794 -5.442734
Si 6.761842 0.506945 1.513952
C 7.384543 1.892794 -2.503666
Si 6.761842 0.506945 4.453020
C 7.384543 1.892794 0.435402
Si 8.181690 2.906684 -3.884365
C 8.804391 4.292533 -7.901982
Si 8.181690 2.906684 -0.945297
C 8.804391 4.292533 -4.962914
Si 8.181690 2.906684 1.993771
C 8.804391 4.292533 -2.023846
Si 9.601538 5.306423 -6.343613
C 10.224239 6.692272 -10.361230
Si 9.601538 5.306423 -3.404545
C 10.224239 6.692272 -7.422162
Si 9.601538 5.306423 -0.465477
C 10.224239 6.692272 -4.483094
