54
A
Si 0.403193 0.545549 3.666829
C 1.131051 1.826404 -0.018845
Si 0.403193 0.545549 6.571866
C 1.131051 1.826404 2.886193
Si 0.403193 0.545549 9.476904
C 1.131051 1.826404 5.791230
Si -0.578399 2.917502 2.461959
C 0.149459 4.198357 -1.223714
Si -0.578399 2.917502 5.366996
C 0.149459 4.198357 1.681323
Si -0.578399 2.917502 8.272034
C 0.149459 4.198357 4.586361
Si -1.559991 5.289456 1.257089
C -0.832133 6.570310 -2.428584
Si -1.559991 5.289456 4.162127
C -0.832133 6.570310 0.476453
Si -1.559991 5.289456 7.067164
C -0.832133 6.570310 3.381491
Si 2.919029 0.545549 5.614645
C 3.646887 1.826404 1.928972
Si 2.919029 0.545549 8.519682
C 3.646887 1.826404 4.834009
Si 2.919029 0.545549 11.424720
C 3.646887 1.826404 7.739047
Si 1.937437 2.917502 4.409775
C 2.665295 4.198357 0.724102
Si 1.937437 2.917502 7.314813
C 2.665295 4.198357 3.629139
Si 1.937437 2.917502 10.219850
C 2.665295 4.198357 6.534177
Si 0.955845 5.289456 3.204905
C 1.683703 6.570310 -0.480768
Si 0.955845 5.289456 6.109943
C 1.683703 6.570310 2.424270
Si 0.955845 5.289456 9.014980
C 1.683703 6.570310 5.329307
Si 5.434865 0.545549 7.562461
C 6.162724 1.826404 3.876788
Si 5.434865 0.545549 10.467499
C 6.162724 1.826404 6.781825
Si 5.434865 0.545549 13.372536
C 6.162724 1.826404 9.686863
Si 4.453273 2.917502 6.357591
C 5.181132 4.198357 2.671918
Si 4.453273 2.917502 9.262629
C 5.181132 4.198357 5.576956
Si 4.453273 2.917502 12.167666
C 5.181132 4.198357 8.481993
Si 3.471681 5.289456 5.152722
C 4.199540 6.570310 1.467048
Si 3.471681 5.289456 8.057759
C 4.199540 6.570310 4.372086
Si 3.471681 5.289456 10.962797
C 4.199540 6.570310 7.277123
