54
A
Si 1.659324 0.555668 1.469910
C 2.413403 1.808876 -2.732154
Si 1.659324 0.555668 4.365873
C 2.413403 1.808876 0.163809
Si 1.659324 0.555668 7.261835
C 2.413403 1.808876 3.059771
Si 3.224074 2.920211 -1.240316
C 3.978152 4.173420 -5.442380
Si 3.224074 2.920211 1.655647
C 3.978152 4.173420 -2.546417
Si 3.224074 2.920211 4.551610
C 3.978152 4.173420 0.349546
Si 4.788824 5.284755 -3.950541
C 5.542902 6.537963 -8.152605
Si 4.788824 5.284755 -1.054579
C 5.542902 6.537963 -5.256643
Si 4.788824 5.284755 1.841384
C 5.542902 6.537963 -2.360680
Si 4.167302 0.555668 0.021929
C 4.921380 1.808876 -4.180135
Si 4.167302 0.555668 2.917892
C 4.921380 1.808876 -1.284172
Si 4.167302 0.555668 5.813854
C 4.921380 1.808876 1.611790
Si 5.732051 2.920211 -2.688297
C 6.486130 4.173420 -6.890361
Si 5.732051 2.920211 0.207666
C 6.486130 4.173420 -3.994398
Si 5.732051 2.920211 3.103629
C 6.486130 4.173420 -1.098435
Si 7.296801 5.284755 -5.398522
C 8.050879 6.537963 -9.600586
Si 7.296801 5.284755 -2.502560
C 8.050879 6.537963 -6.704624
Si 7.296801 5.284755 0.393403
C 8.050879 6.537963 -3.808661
Si 6.675279 0.555668 -1.426052
C 7.429357 1.808876 -5.628116
Si 6.675279 0.555668 1.469910
C 7.429357 1.808876 -2.732154
Si 6.675279 0.555668 4.365873
C 7.429357 1.808876 0.163809
Si 8.240029 2.920211 -4.136278
C 8.994107 4.173420 -8.338342
Si 8.240029 2.920211 -1.240315
C 8.994107 4.173420 -5.442379
Si 8.240029 2.920211 1.655647
C 8.994107 4.173420 -2.546416
Si 9.804778 5.284755 -6.846504
C 10.558857 6.537963 -11.048567
Si 9.804778 5.284755 -3.950541
C 10.558857 6.537963 -8.152605
Si 9.804778 5.284755 -1.054578
C 10.558857 6.537963 -5.256642
