54
A
Si 0.430223 0.350745 3.863397
C 0.554919 2.154579 3.291189
Si 0.430223 0.350745 6.931781
C 0.554919 2.154579 6.359573
Si 0.430223 0.350745 10.000165
C 0.554919 2.154579 9.427956
Si -1.241933 2.856070 3.691273
C -1.117237 4.659904 3.119065
Si -1.241933 2.856070 6.759657
C -1.117237 4.659904 6.187448
Si -1.241933 2.856070 9.828041
C -1.117237 4.659904 9.255832
Si -2.914089 5.361395 3.519149
C -2.789393 7.165229 2.946941
Si -2.914089 5.361395 6.587533
C -2.789393 7.165229 6.015324
Si -2.914089 5.361395 9.655917
C -2.789393 7.165229 9.083708
Si 3.087521 0.350745 8.121724
C 3.212218 2.154579 7.549516
Si 3.087521 0.350745 11.190108
C 3.212218 2.154579 10.617899
Si 3.087521 0.350745 14.258492
C 3.212218 2.154579 13.686283
Si 1.415365 2.856070 7.949600
C 1.540062 4.659904 7.377391
Si 1.415365 2.856070 11.017984
C 1.540062 4.659904 10.445775
Si 1.415365 2.856070 14.086367
C 1.540062 4.659904 13.514159
Si -0.256791 5.361395 7.777476
C -0.132094 7.165229 7.205267
Si -0.256791 5.361395 10.845860
C -0.132094 7.165229 10.273651
Si -0.256791 5.361395 13.914243
C -0.132094 7.165229 13.342035
Si 5.744819 0.350745 12.380051
C 5.869516 2.154579 11.807842
Si 5.744819 0.350745 15.448434
C 5.869516 2.154579 14.876226
Si 5.744819 0.350745 18.516818
C 5.869516 2.154579 17.944610
Si 4.072663 2.856070 12.207927
C 4.197360 4.659904 11.635718
Si 4.072663 2.856070 15.276310
C 4.197360 4.659904 14.704102
Si 4.072663 2.856070 18.344694
C 4.197360 4.659904 17.772486
Si 2.400507 5.361395 12.035802
C 2.525204 7.165229 11.463594
Si 2.400507 5.361395 15.104186
C 2.525204 7.165229 14.531978
Si 2.400507 5.361395 18.172570
C 2.525204 7.165229 17.600361
