54
A
Si 1.668772 0.514749 1.507994
C 2.313368 1.879433 -2.540740
Si 1.668772 0.514749 4.440256
C 2.313368 1.879433 0.391522
Si 1.668772 0.514749 7.372518
C 2.313368 1.879433 3.323784
Si 3.111500 2.908931 -0.990882
C 3.756095 4.273614 -5.039616
Si 3.111500 2.908931 1.941380
C 3.756095 4.273614 -2.107354
Si 3.111500 2.908931 4.873642
C 3.756095 4.273614 0.824908
Si 4.554227 5.303113 -3.489758
C 5.198822 6.667796 -7.538492
Si 4.554227 5.303113 -0.557496
C 5.198822 6.667796 -4.606230
Si 4.554227 5.303113 2.374765
C 5.198822 6.667796 -1.673968
Si 4.208186 0.514749 0.041863
C 4.852781 1.879433 -4.006870
Si 4.208186 0.514749 2.974125
C 4.852781 1.879433 -1.074609
Si 4.208186 0.514749 5.906387
C 4.852781 1.879433 1.857653
Si 5.650913 2.908931 -2.457013
C 6.295508 4.273614 -6.505747
Si 5.650913 2.908931 0.475249
C 6.295508 4.273614 -3.573485
Si 5.650913 2.908931 3.407511
C 6.295508 4.273614 -0.641223
Si 7.093640 5.303113 -4.955889
C 7.738235 6.667796 -9.004623
Si 7.093640 5.303113 -2.023627
C 7.738235 6.667796 -6.072361
Si 7.093640 5.303113 0.908635
C 7.738235 6.667796 -3.140099
Si 6.747599 0.514749 -1.424267
C 7.392194 1.879433 -5.473001
Si 6.747599 0.514749 1.507995
C 7.392194 1.879433 -2.540739
Si 6.747599 0.514749 4.440256
C 7.392194 1.879433 0.391522
Si 8.190326 2.908931 -3.923144
C 8.834921 4.273614 -7.971878
Si 8.190326 2.908931 -0.990882
C 8.834921 4.273614 -5.039616
Si 8.190326 2.908931 1.941380
C 8.834921 4.273614 -2.107354
Si 9.633053 5.303113 -6.422020
C 10.277649 6.667796 -10.470754
Si 9.633053 5.303113 -3.489758
C 10.277649 6.667796 -7.538492
Si 9.633053 5.303113 -0.557496
C 10.277649 6.667796 -4.606230
