54
A
Si 0.399774 0.522512 3.706390
C 1.065833 1.866113 0.379920
Si 0.399774 0.522512 6.631845
C 1.065833 1.866113 3.305375
Si 0.399774 0.522512 9.557301
C 1.065833 1.866113 6.230831
Si -0.668139 2.911136 2.630613
C -0.002080 4.254738 -0.695857
Si -0.668139 2.911136 5.556069
C -0.002080 4.254738 2.229599
Si -0.668139 2.911136 8.481525
C -0.002080 4.254738 5.155055
Si -1.736051 5.299761 1.554837
C -1.069992 6.643362 -1.771633
Si -1.736051 5.299761 4.480292
C -1.069992 6.643362 1.153822
Si -1.736051 5.299761 7.405748
C -1.069992 6.643362 4.079278
Si 2.933293 0.522512 5.943020
C 3.599351 1.866113 2.616550
Si 2.933293 0.522512 8.868475
C 3.599351 1.866113 5.542005
Si 2.933293 0.522512 11.793931
C 3.599351 1.866113 8.467461
Si 1.865380 2.911136 4.867243
C 2.531439 4.254738 1.540773
Si 1.865380 2.911136 7.792699
C 2.531439 4.254738 4.466229
Si 1.865380 2.911136 10.718155
C 2.531439 4.254738 7.391685
Si 0.797468 5.299761 3.791467
C 1.463526 6.643362 0.464997
Si 0.797468 5.299761 6.716922
C 1.463526 6.643362 3.390452
Si 0.797468 5.299761 9.642378
C 1.463526 6.643362 6.315908
Si 5.466812 0.522512 8.179650
C 6.132870 1.866113 4.853180
Si 5.466812 0.522512 11.105106
C 6.132870 1.866113 7.778635
Si 5.466812 0.522512 14.030561
C 6.132870 1.866113 10.704091
Si 4.398899 2.911136 7.103873
C 5.064958 4.254738 3.777403
Si 4.398899 2.911136 10.029329
C 5.064958 4.254738 6.702859
Si 4.398899 2.911136 12.954785
C 5.064958 4.254738 9.628315
Si 3.330987 5.299761 6.028097
C 3.997045 6.643362 2.701627
Si 3.330987 5.299761 8.953552
C 3.997045 6.643362 5.627082
Si 3.330987 5.299761 11.879008
C 3.997045 6.643362 8.552538
