54
A
Si 1.687964 0.464618 1.539410
C 2.186604 1.964759 -2.299626
Si 1.687964 0.464618 4.514778
C 2.186604 1.964759 0.675741
Si 1.687964 0.464618 7.490145
C 2.186604 1.964759 3.651108
Si 2.985790 2.893995 -0.708489
C 3.484429 4.394136 -4.547525
Si 2.985790 2.893995 2.266879
C 3.484429 4.394136 -1.572158
Si 2.985790 2.893995 5.242246
C 3.484429 4.394136 1.403209
Si 4.283615 5.323372 -2.956388
C 4.782255 6.823513 -6.795424
Si 4.283615 5.323372 0.018980
C 4.782255 6.823513 -3.820057
Si 4.283615 5.323372 2.994347
C 4.782255 6.823513 -0.844690
Si 4.264708 0.464618 0.051727
C 4.763348 1.964759 -3.787310
Si 4.264708 0.464618 3.027094
C 4.763348 1.964759 -0.811942
Si 4.264708 0.464618 6.002461
C 4.763348 1.964759 2.163425
Si 5.562533 2.893995 -2.196172
C 6.061173 4.394136 -6.035209
Si 5.562533 2.893995 0.779195
C 6.061173 4.394136 -3.059841
Si 5.562533 2.893995 3.754562
C 6.061173 4.394136 -0.084474
Si 6.860358 5.323372 -4.444071
C 7.358998 6.823513 -8.283108
Si 6.860358 5.323372 -1.468704
C 7.358998 6.823513 -5.307740
Si 6.860358 5.323372 1.506663
C 7.358998 6.823513 -2.332373
Si 6.841451 0.464618 -1.435957
C 7.340091 1.964759 -5.274993
Si 6.841451 0.464618 1.539410
C 7.340091 1.964759 -2.299626
Si 6.841451 0.464618 4.514777
C 7.340091 1.964759 0.675741
Si 8.139277 2.893995 -3.683856
C 8.637916 4.394136 -7.522892
Si 8.139277 2.893995 -0.708489
C 8.637916 4.394136 -4.547525
Si 8.139277 2.893995 2.266878
C 8.637916 4.394136 -1.572158
Si 9.437102 5.323372 -5.931755
C 9.935742 6.823513 -9.770791
Si 9.437102 5.323372 -2.956388
C 9.935742 6.823513 -6.795424
Si 9.437102 5.323372 0.018979
C 9.935742 6.823513 -3.820057
