54
A
Si 1.665835 0.525090 1.499470
C 2.338952 1.861682 -2.589590
Si 1.665835 0.525090 4.422657
C 2.338952 1.861682 0.333597
Si 1.665835 0.525090 7.345844
C 2.338952 1.861682 3.256784
Si 3.139068 2.911862 -1.052244
C 3.812185 4.248455 -5.141304
Si 3.139068 2.911862 1.870943
C 3.812185 4.248455 -2.218116
Si 3.139068 2.911862 4.794130
C 3.812185 4.248455 0.705071
Si 4.612301 5.298634 -3.603957
C 5.285418 6.635227 -7.693017
Si 4.612301 5.298634 -0.680770
C 5.285418 6.635227 -4.769830
Si 4.612301 5.298634 2.242417
C 5.285418 6.635227 -1.846643
Si 4.197389 0.525090 0.037877
C 4.870506 1.861682 -4.051183
Si 4.197389 0.525090 2.961064
C 4.870506 1.861682 -1.127996
Si 4.197389 0.525090 5.884251
C 4.870506 1.861682 1.795191
Si 5.670622 2.911862 -2.513837
C 6.343739 4.248455 -6.602897
Si 5.670622 2.911862 0.409350
C 6.343739 4.248455 -3.679710
Si 5.670622 2.911862 3.332537
C 6.343739 4.248455 -0.756523
Si 7.143855 5.298634 -5.065551
C 7.816972 6.635227 -9.154611
Si 7.143855 5.298634 -2.142364
C 7.816972 6.635227 -6.231424
Si 7.143855 5.298634 0.780823
C 7.816972 6.635227 -3.308236
Si 6.728943 0.525090 -1.423717
C 7.402060 1.861682 -5.512777
Si 6.728943 0.525090 1.499470
C 7.402060 1.861682 -2.589590
Si 6.728943 0.525090 4.422657
C 7.402060 1.861682 0.333597
Si 8.202176 2.911862 -3.975430
C 8.875293 4.248455 -8.064490
Si 8.202176 2.911862 -1.052243
C 8.875293 4.248455 -5.141303
Si 8.202176 2.911862 1.870944
C 8.875293 4.248455 -2.218116
Si 9.675409 5.298634 -6.527144
C 10.348526 6.635227 -10.616204
Si 9.675409 5.298634 -3.603957
C 10.348526 6.635227 -7.693017
Si 9.675409 5.298634 -0.680770
C 10.348526 6.635227 -4.769830
