54
A
Si 0.420046 0.376409 3.853816
C 0.633734 2.112245 2.862445
Si 0.420046 0.376409 6.901782
C 0.633734 2.112245 5.910410
Si 0.420046 0.376409 9.949747
C 0.633734 2.112245 8.958376
Si -1.165789 2.865062 3.552599
C -0.952102 4.600898 2.561227
Si -1.165789 2.865062 6.600564
C -0.952102 4.600898 5.609193
Si -1.165789 2.865062 9.648530
C -0.952102 4.600898 8.657158
Si -2.751625 5.353715 3.251382
C -2.537937 7.089551 2.260010
Si -2.751625 5.353715 6.299347
C -2.537937 7.089551 5.307976
Si -2.751625 5.353715 9.347312
C -2.537937 7.089551 8.355941
Si 3.059662 0.376409 7.823329
C 3.273349 2.112245 6.831958
Si 3.059662 0.376409 10.871295
C 3.273349 2.112245 9.879923
Si 3.059662 0.376409 13.919260
C 3.273349 2.112245 12.927889
Si 1.473826 2.865062 7.522112
C 1.687514 4.600898 6.530740
Si 1.473826 2.865062 10.570077
C 1.687514 4.600898 9.578706
Si 1.473826 2.865062 13.618043
C 1.687514 4.600898 12.626671
Si -0.112009 5.353715 7.220894
C 0.101678 7.089551 6.229523
Si -0.112009 5.353715 10.268860
C 0.101678 7.089551 9.277488
Si -0.112009 5.353715 13.316825
C 0.101678 7.089551 12.325454
Si 5.699277 0.376409 11.792842
C 5.912965 2.112245 10.801470
Si 5.699277 0.376409 14.840807
C 5.912965 2.112245 13.849436
Si 5.699277 0.376409 17.888773
C 5.912965 2.112245 16.897401
Si 4.113442 2.865062 11.491625
C 4.327129 4.600898 10.500253
Si 4.113442 2.865062 14.539590
C 4.327129 4.600898 13.548219
Si 4.113442 2.865062 17.587556
C 4.327129 4.600898 16.596184
Si 2.527606 5.353715 11.190407
C 2.741294 7.089551 10.199036
Si 2.527606 5.353715 14.238373
C 2.741294 7.089551 13.247001
Si 2.527606 5.353715 17.286338
C 2.741294 7.089551 16.294967
