54
A
Si 0.398233 0.493845 3.748926
C 0.983483 1.915156 0.873114
Si 0.398233 0.493845 6.699337
C 0.983483 1.915156 3.823526
Si 0.398233 0.493845 9.649749
C 0.983483 1.915156 6.773937
Si -0.775183 2.902846 2.830930
C -0.189932 4.324156 -0.044882
Si -0.775183 2.902846 5.781341
C -0.189932 4.324156 2.905530
Si -0.775183 2.902846 8.731753
C -0.189932 4.324156 5.855941
Si -1.948598 5.311847 1.912934
C -1.363347 6.733157 -0.962878
Si -1.948598 5.311847 4.863345
C -1.363347 6.733157 1.987534
Si -1.948598 5.311847 7.813757
C -1.363347 6.733157 4.937945
Si 2.953364 0.493845 6.338550
C 3.538614 1.915156 3.462739
Si 2.953364 0.493845 9.288962
C 3.538614 1.915156 6.413151
Si 2.953364 0.493845 12.239373
C 3.538614 1.915156 9.363562
Si 1.779948 2.902846 5.420555
C 2.365199 4.324156 2.544743
Si 1.779948 2.902846 8.370966
C 2.365199 4.324156 5.495155
Si 1.779948 2.902846 11.321377
C 2.365199 4.324156 8.445566
Si 0.606533 5.311847 4.502559
C 1.191784 6.733157 1.626747
Si 0.606533 5.311847 7.452970
C 1.191784 6.733157 4.577159
Si 0.606533 5.311847 10.403381
C 1.191784 6.733157 7.527570
Si 5.508495 0.493845 8.928175
C 6.093746 1.915156 6.052364
Si 5.508495 0.493845 11.878587
C 6.093746 1.915156 9.002775
Si 5.508495 0.493845 14.828998
C 6.093746 1.915156 11.953187
Si 4.335080 2.902846 8.010179
C 4.920330 4.324156 5.134368
Si 4.335080 2.902846 10.960591
C 4.920330 4.324156 8.084779
Si 4.335080 2.902846 13.911002
C 4.920330 4.324156 11.035191
Si 3.161664 5.311847 7.092183
C 3.746915 6.733157 4.216372
Si 3.161664 5.311847 10.042595
C 3.746915 6.733157 7.166783
Si 3.161664 5.311847 12.993006
C 3.746915 6.733157 10.117195
