54
A
Si 1.710840 0.421106 1.554237
C 2.073142 2.037909 -2.084954
Si 1.710840 0.421106 4.565904
C 2.073142 2.037909 0.926712
Si 1.710840 0.421106 7.577570
C 2.073142 2.037909 3.938378
Si 2.886643 2.880121 -0.482312
C 3.248945 4.496924 -4.121504
Si 2.886643 2.880121 2.529354
C 3.248945 4.496924 -1.109838
Si 2.886643 2.880121 5.541020
C 3.248945 4.496924 1.901829
Si 4.062445 5.339137 -2.518862
C 4.424747 6.955939 -6.158054
Si 4.062445 5.339137 0.492804
C 4.424747 6.955939 -3.146387
Si 4.062445 5.339137 3.504471
C 4.424747 6.955939 -0.134721
Si 4.319019 0.421106 0.048404
C 4.681321 2.037909 -3.590787
Si 4.319019 0.421106 3.060070
C 4.681321 2.037909 -0.579121
Si 4.319019 0.421106 6.071737
C 4.681321 2.037909 2.432545
Si 5.494822 2.880121 -1.988146
C 5.857124 4.496924 -5.627337
Si 5.494822 2.880121 1.023521
C 5.857124 4.496924 -2.615671
Si 5.494822 2.880121 4.035187
C 5.857124 4.496924 0.395995
Si 6.670625 5.339137 -4.024695
C 7.032927 6.955939 -7.663887
Si 6.670625 5.339137 -1.013029
C 7.032927 6.955939 -4.652221
Si 6.670625 5.339137 1.998637
C 7.032927 6.955939 -1.640554
Si 6.927199 0.421106 -1.457429
C 7.289501 2.037909 -5.096621
Si 6.927199 0.421106 1.554237
C 7.289501 2.037909 -2.084955
Si 6.927199 0.421106 4.565903
C 7.289501 2.037909 0.926712
Si 8.103001 2.880121 -3.493979
C 8.465303 4.496924 -7.133171
Si 8.103001 2.880121 -0.482313
C 8.465303 4.496924 -4.121504
Si 8.103001 2.880121 2.529354
C 8.465303 4.496924 -1.109838
Si 9.278804 5.339137 -5.530529
C 9.641106 6.955939 -9.169720
Si 9.278804 5.339137 -2.518862
C 9.641106 6.955939 -6.158054
Si 9.278804 5.339137 0.492804
C 9.641106 6.955939 -3.146388
