54
A
Si 0.404764 0.553145 3.652690
C 1.152359 1.813251 -0.150814
Si 0.404764 0.553145 6.550921
C 1.152359 1.813251 2.747417
Si 0.404764 0.553145 9.449153
C 1.152359 1.813251 5.645648
Si -0.548054 2.919541 2.404789
C 0.199541 4.179647 -1.398715
Si -0.548054 2.919541 5.303020
C 0.199541 4.179647 1.499516
Si -0.548054 2.919541 8.201252
C 0.199541 4.179647 4.397748
Si -1.500873 5.285937 1.156888
C -0.753278 6.546043 -2.646616
Si -1.500873 5.285937 4.055120
C -0.753278 6.546043 0.251615
Si -1.500873 5.285937 6.953351
C -0.753278 6.546043 3.149847
Si 2.914706 0.553145 5.504235
C 3.662301 1.813251 1.700731
Si 2.914706 0.553145 8.402466
C 3.662301 1.813251 4.598962
Si 2.914706 0.553145 11.300698
C 3.662301 1.813251 7.497193
Si 1.961888 2.919541 4.256334
C 2.709483 4.179647 0.452830
Si 1.961888 2.919541 7.154565
C 2.709483 4.179647 3.351061
Si 1.961888 2.919541 10.052797
C 2.709483 4.179647 6.249293
Si 1.009069 5.285937 3.008433
C 1.756664 6.546043 -0.795071
Si 1.009069 5.285937 5.906665
C 1.756664 6.546043 2.103160
Si 1.009069 5.285937 8.804896
C 1.756664 6.546043 5.001392
Si 5.424648 0.553145 7.355780
C 6.172243 1.813251 3.552276
Si 5.424648 0.553145 10.254011
C 6.172243 1.813251 6.450507
Si 5.424648 0.553145 13.152243
C 6.172243 1.813251 9.348738
Si 4.471829 2.919541 6.107879
C 5.219425 4.179647 2.304375
Si 4.471829 2.919541 9.006110
C 5.219425 4.179647 5.202606
Si 4.471829 2.919541 11.904342
C 5.219425 4.179647 8.100838
Si 3.519011 5.285937 4.859978
C 4.266606 6.546043 1.056474
Si 3.519011 5.285937 7.758210
C 4.266606 6.546043 3.954705
Si 3.519011 5.285937 10.656441
C 4.266606 6.546043 6.852937
