54
A
Si 0.399593 0.464618 3.785064
C 0.898233 1.964759 1.372707
Si 0.399593 0.464618 6.760431
C 0.898233 1.964759 4.348074
Si 0.399593 0.464618 9.735798
C 0.898233 1.964759 7.323441
Si -0.879325 2.893995 3.024849
C -0.380686 4.394136 0.612492
Si -0.879325 2.893995 6.000216
C -0.380686 4.394136 3.587859
Si -0.879325 2.893995 8.975583
C -0.380686 4.394136 6.563226
Si -2.158244 5.323372 2.264633
C -1.659604 6.823513 -0.147724
Si -2.158244 5.323372 5.240001
C -1.659604 6.823513 2.827643
Si -2.158244 5.323372 8.215368
C -1.659604 6.823513 5.803010
Si 2.976336 0.464618 6.727683
C 3.474976 1.964759 4.315326
Si 2.976336 0.464618 9.703051
C 3.474976 1.964759 7.290693
Si 2.976336 0.464618 12.678418
C 3.474976 1.964759 10.266061
Si 1.697418 2.893995 5.967468
C 2.196058 4.394136 3.555111
Si 1.697418 2.893995 8.942835
C 2.196058 4.394136 6.530478
Si 1.697418 2.893995 11.918202
C 2.196058 4.394136 9.505845
Si 0.418500 5.323372 5.207253
C 0.917140 6.823513 2.794896
Si 0.418500 5.323372 8.182620
C 0.917140 6.823513 5.770263
Si 0.418500 5.323372 11.157987
C 0.917140 6.823513 8.745630
Si 5.553080 0.464618 9.670303
C 6.051719 1.964759 7.257946
Si 5.553080 0.464618 12.645670
C 6.051719 1.964759 10.233313
Si 5.553080 0.464618 15.621037
C 6.051719 1.964759 13.208680
Si 4.274161 2.893995 8.910087
C 4.772801 4.394136 6.497730
Si 4.274161 2.893995 11.885455
C 4.772801 4.394136 9.473097
Si 4.274161 2.893995 14.860822
C 4.772801 4.394136 12.448465
Si 2.995243 5.323372 8.149872
C 3.493883 6.823513 5.737515
Si 2.995243 5.323372 11.125239
C 3.493883 6.823513 8.712882
Si 2.995243 5.323372 14.100606
C 3.493883 6.823513 11.688249
