54
A
Si 1.670385 0.509551 1.512007
C 2.300432 1.888336 -2.516065
Si 1.670385 0.509551 4.448807
C 2.300432 1.888336 0.420734
Si 1.670385 0.509551 7.385606
C 2.300432 1.888336 3.357533
Si 3.097859 2.907437 -0.960450
C 3.727906 4.286222 -4.988523
Si 3.097859 2.907437 1.976349
C 3.727906 4.286222 -2.051724
Si 3.097859 2.907437 4.913148
C 3.727906 4.286222 0.885076
Si 4.525334 5.305324 -3.432908
C 5.155381 6.684109 -7.460981
Si 4.525334 5.305324 -0.496109
C 5.155381 6.684109 -4.524181
Si 4.525334 5.305324 2.440691
C 5.155381 6.684109 -1.587382
Si 4.213728 0.509551 0.043608
C 4.843775 1.888336 -3.984465
Si 4.213728 0.509551 2.980407
C 4.843775 1.888336 -1.047666
Si 4.213728 0.509551 5.917206
C 4.843775 1.888336 1.889134
Si 5.641202 2.907437 -2.428850
C 6.271249 4.286222 -6.456922
Si 5.641202 2.907437 0.507949
C 6.271249 4.286222 -3.520123
Si 5.641202 2.907437 3.444749
C 6.271249 4.286222 -0.583324
Si 7.068676 5.305324 -4.901308
C 7.698723 6.684109 -8.929380
Si 7.068676 5.305324 -1.964508
C 7.698723 6.684109 -5.992581
Si 7.068676 5.305324 0.972291
C 7.698723 6.684109 -3.055782
Si 6.757070 0.509551 -1.424792
C 7.387117 1.888336 -5.452864
Si 6.757070 0.509551 1.512007
C 7.387117 1.888336 -2.516065
Si 6.757070 0.509551 4.448807
C 7.387117 1.888336 0.420734
Si 8.184545 2.907437 -3.897249
C 8.814592 4.286222 -7.925322
Si 8.184545 2.907437 -0.960450
C 8.814592 4.286222 -4.988523
Si 8.184545 2.907437 1.976349
C 8.814592 4.286222 -2.051723
Si 9.612019 5.305324 -6.369707
C 10.242066 6.684109 -10.397780
Si 9.612019 5.305324 -3.432908
C 10.242066 6.684109 -7.460980
Si 9.612019 5.305324 -0.496109
C 10.242066 6.684109 -4.524181
