54
A
Si 0.400058 0.525090 3.702205
C 1.073175 1.861682 0.335401
Si 0.400058 0.525090 6.625393
C 1.073175 1.861682 3.258588
Si 0.400058 0.525090 9.548580
C 1.073175 1.861682 6.181775
Si -0.658264 2.911862 2.612085
C 0.014854 4.248455 -0.754719
Si -0.658264 2.911862 5.535272
C 0.014854 4.248455 2.168468
Si -0.658264 2.911862 8.458459
C 0.014854 4.248455 5.091655
Si -1.716585 5.298634 1.521965
C -1.043468 6.635227 -1.844839
Si -1.716585 5.298634 4.445152
C -1.043468 6.635227 1.078348
Si -1.716585 5.298634 7.368339
C -1.043468 6.635227 4.001535
Si 2.931612 0.525090 5.906745
C 3.604729 1.861682 2.539941
Si 2.931612 0.525090 8.829932
C 3.604729 1.861682 5.463128
Si 2.931612 0.525090 11.753119
C 3.604729 1.861682 8.386315
Si 1.873291 2.911862 4.816625
C 2.546408 4.248455 1.449820
Si 1.873291 2.911862 7.739812
C 2.546408 4.248455 4.373007
Si 1.873291 2.911862 10.662999
C 2.546408 4.248455 7.296195
Si 0.814969 5.298634 3.726505
C 1.488086 6.635227 0.359700
Si 0.814969 5.298634 6.649692
C 1.488086 6.635227 3.282887
Si 0.814969 5.298634 9.572879
C 1.488086 6.635227 6.206074
Si 5.463166 0.525090 8.111285
C 6.136283 1.861682 4.744480
Si 5.463166 0.525090 11.034472
C 6.136283 1.861682 7.667667
Si 5.463166 0.525090 13.957659
C 6.136283 1.861682 10.590854
Si 4.404845 2.911862 7.021165
C 5.077962 4.248455 3.654360
Si 4.404845 2.911862 9.944352
C 5.077962 4.248455 6.577547
Si 4.404845 2.911862 12.867539
C 5.077962 4.248455 9.500734
Si 3.346523 5.298634 5.931044
C 4.019641 6.635227 2.564240
Si 3.346523 5.298634 8.854231
C 4.019641 6.635227 5.487427
Si 3.346523 5.298634 11.777418
C 4.019641 6.635227 8.410614
