54
A
Si 1.706083 0.429355 1.552267
C 2.094884 2.024103 -2.126015
Si 1.706083 0.429355 4.557127
C 2.094884 2.024103 0.878845
Si 1.706083 0.429355 7.561988
C 2.094884 2.024103 3.883705
Si 2.904765 2.882813 -0.523910
C 3.293566 4.477561 -4.202193
Si 2.904765 2.882813 2.480950
C 3.293566 4.477561 -1.197332
Si 2.904765 2.882813 5.485810
C 3.293566 4.477561 1.807528
Si 4.103447 5.336271 -2.600088
C 4.492247 6.931019 -6.278370
Si 4.103447 5.336271 0.404772
C 4.492247 6.931019 -3.273510
Si 4.103447 5.336271 3.409632
C 4.492247 6.931019 -0.268650
Si 4.308368 0.429355 0.049837
C 4.697169 2.024103 -3.628445
Si 4.308368 0.429355 3.054697
C 4.697169 2.024103 -0.623585
Si 4.308368 0.429355 6.059557
C 4.697169 2.024103 2.381275
Si 5.507050 2.882813 -2.026341
C 5.895851 4.477561 -5.704623
Si 5.507050 2.882813 0.978519
C 5.895851 4.477561 -2.699763
Si 5.507050 2.882813 3.983380
C 5.895851 4.477561 0.305097
Si 6.705732 5.336271 -4.102518
C 7.094533 6.931019 -7.780801
Si 6.705732 5.336271 -1.097658
C 7.094533 6.931019 -4.775940
Si 6.705732 5.336271 1.907202
C 7.094533 6.931019 -1.771080
Si 6.910654 0.429355 -1.452593
C 7.299454 2.024103 -5.130875
Si 6.910654 0.429355 1.552267
C 7.299454 2.024103 -2.126015
Si 6.910654 0.429355 4.557127
C 7.299454 2.024103 0.878845
Si 8.109335 2.882813 -3.528771
C 8.498136 4.477561 -7.207053
Si 8.109335 2.882813 -0.523911
C 8.498136 4.477561 -4.202193
Si 8.109335 2.882813 2.480949
C 8.498136 4.477561 -1.197333
Si 9.308017 5.336271 -5.604949
C 9.696818 6.931019 -9.283231
Si 9.308017 5.336271 -2.600088
C 9.696818 6.931019 -6.278371
Si 9.308017 5.336271 0.404772
C 9.696818 6.931019 -3.273510
