54
A
Si 0.432748 0.344992 3.864945
C 0.537141 2.164038 3.387047
Si 0.432748 0.344992 6.937866
C 0.537141 2.164038 6.459968
Si 0.432748 0.344992 10.010787
C 0.537141 2.164038 9.532889
Si -1.258590 2.854021 3.721508
C -1.154197 4.673067 3.243610
Si -1.258590 2.854021 6.794429
C -1.154197 4.673067 6.316531
Si -1.258590 2.854021 9.867350
C -1.154197 4.673067 9.389453
Si -2.949929 5.363050 3.578071
C -2.845535 7.182097 3.100173
Si -2.949929 5.363050 6.650993
C -2.845535 7.182097 6.173095
Si -2.949929 5.363050 9.723914
C -2.845535 7.182097 9.246016
Si 3.093976 0.344992 8.187452
C 3.198369 2.164038 7.709554
Si 3.093976 0.344992 11.260374
C 3.198369 2.164038 10.782476
Si 3.093976 0.344992 14.333295
C 3.198369 2.164038 13.855397
Si 1.402637 2.854021 8.044016
C 1.507031 4.673067 7.566118
Si 1.402637 2.854021 11.116937
C 1.507031 4.673067 10.639039
Si 1.402637 2.854021 14.189858
C 1.507031 4.673067 13.711960
Si -0.288701 5.363050 7.900579
C -0.184308 7.182097 7.422681
Si -0.288701 5.363050 10.973500
C -0.184308 7.182097 10.495602
Si -0.288701 5.363050 14.046421
C -0.184308 7.182097 13.568523
Si 5.755203 0.344992 12.509960
C 5.859597 2.164038 12.032062
Si 5.755203 0.344992 15.582881
C 5.859597 2.164038 15.104983
Si 5.755203 0.344992 18.655802
C 5.859597 2.164038 18.177904
Si 4.063865 2.854021 12.366523
C 4.168259 4.673067 11.888625
Si 4.063865 2.854021 15.439444
C 4.168259 4.673067 14.961546
Si 4.063865 2.854021 18.512365
C 4.168259 4.673067 18.034468
Si 2.372527 5.363050 12.223086
C 2.476920 7.182097 11.745188
Si 2.372527 5.363050 15.296008
C 2.476920 7.182097 14.818110
Si 2.372527 5.363050 18.368929
C 2.476920 7.182097 17.891031
