54
A
Si 0.398491 0.480630 3.766145
C 0.945093 1.937633 1.099409
Si 0.398491 0.480630 6.727900
C 0.945093 1.937633 4.061164
Si 0.398491 0.480630 9.689655
C 0.945093 1.937633 7.022919
Si -0.822880 2.898892 2.919868
C -0.276279 4.355896 0.253131
Si -0.822880 2.898892 5.881623
C -0.276279 4.355896 3.214886
Si -0.822880 2.898892 8.843378
C -0.276279 4.355896 6.176641
Si -2.044251 5.317155 2.073590
C -1.497650 6.774159 -0.593146
Si -2.044251 5.317155 5.035345
C -1.497650 6.774159 2.368609
Si -2.044251 5.317155 7.997100
C -1.497650 6.774159 5.330364
Si 2.963446 0.480630 6.516222
C 3.510047 1.937633 3.849486
Si 2.963446 0.480630 9.477977
C 3.510047 1.937633 6.811241
Si 2.963446 0.480630 12.439732
C 3.510047 1.937633 9.772995
Si 1.742075 2.898892 5.669945
C 2.288676 4.355896 3.003208
Si 1.742075 2.898892 8.631700
C 2.288676 4.355896 5.964963
Si 1.742075 2.898892 11.593455
C 2.288676 4.355896 8.926718
Si 0.520704 5.317155 4.823667
C 1.067305 6.774159 2.156931
Si 0.520704 5.317155 7.785422
C 1.067305 6.774159 5.118686
Si 0.520704 5.317155 10.747177
C 1.067305 6.774159 8.080440
Si 5.528401 0.480630 9.266299
C 6.075002 1.937633 6.599562
Si 5.528401 0.480630 12.228054
C 6.075002 1.937633 9.561317
Si 5.528401 0.480630 15.189809
C 6.075002 1.937633 12.523072
Si 4.307030 2.898892 8.420022
C 4.853631 4.355896 5.753285
Si 4.307030 2.898892 11.381776
C 4.853631 4.355896 8.715040
Si 4.307030 2.898892 14.343531
C 4.853631 4.355896 11.676795
Si 3.085659 5.317155 7.573744
C 3.632260 6.774159 4.907007
Si 3.085659 5.317155 10.535499
C 3.632260 6.774159 7.868762
Si 3.085659 5.317155 13.497254
C 3.632260 6.774159 10.830517
