54
A
Si 1.735892 0.382061 1.558490
C 1.968827 2.102888 -1.888395
Si 1.735892 0.382061 4.601918
C 1.968827 2.102888 1.155033
Si 1.735892 0.382061 7.645346
C 1.968827 2.102888 4.198461
Si 2.804924 2.867009 -0.293129
C 3.037860 4.587836 -3.740014
Si 2.804924 2.867009 2.750299
C 3.037860 4.587836 -0.696586
Si 2.804924 2.867009 5.793727
C 3.037860 4.587836 2.346842
Si 3.873957 5.351958 -2.144749
C 4.106893 7.072785 -5.591633
Si 3.873957 5.351958 0.898680
C 4.106893 7.072785 -2.548205
Si 3.873957 5.351958 3.942108
C 4.106893 7.072785 0.495223
Si 4.371577 0.382061 0.036775
C 4.604513 2.102888 -3.410109
Si 4.371577 0.382061 3.080203
C 4.604513 2.102888 -0.366681
Si 4.371577 0.382061 6.123631
C 4.604513 2.102888 2.676747
Si 5.440610 2.867009 -1.814844
C 5.673546 4.587836 -5.261728
Si 5.440610 2.867009 1.228584
C 5.673546 4.587836 -2.218300
Si 5.440610 2.867009 4.272012
C 5.673546 4.587836 0.825128
Si 6.509643 5.351958 -3.666463
C 6.742579 7.072785 -7.113347
Si 6.509643 5.351958 -0.623035
C 6.742579 7.072785 -4.069919
Si 6.509643 5.351958 2.420393
C 6.742579 7.072785 -1.026491
Si 7.007263 0.382061 -1.484939
C 7.240199 2.102888 -4.931824
Si 7.007263 0.382061 1.558489
C 7.240199 2.102888 -1.888395
Si 7.007263 0.382061 4.601917
C 7.240199 2.102888 1.155033
Si 8.076296 2.867009 -3.336558
C 8.309232 4.587836 -6.783443
Si 8.076296 2.867009 -0.293130
C 8.309232 4.587836 -3.740015
Si 8.076296 2.867009 2.750298
C 8.309232 4.587836 -0.696586
Si 9.145329 5.351958 -5.188177
C 9.378265 7.072785 -8.635062
Si 9.145329 5.351958 -2.144749
C 9.378265 7.072785 -5.591634
Si 9.145329 5.351958 0.898679
C 9.378265 7.072785 -2.548205
