54
A
Si 0.398365 0.501719 3.737960
C 1.006230 1.901725 0.737972
Si 0.398365 0.501719 6.681565
C 1.006230 1.901725 3.681578
Si 0.398365 0.501719 9.625170
C 1.006230 1.901725 6.625183
Si -0.746277 2.905163 2.776933
C -0.138412 4.305168 -0.223055
Si -0.746277 2.905163 5.720538
C -0.138412 4.305168 2.720551
Si -0.746277 2.905163 8.664143
C -0.138412 4.305168 5.664156
Si -1.890918 5.308606 1.815905
C -1.283054 6.708612 -1.184082
Si -1.890918 5.308606 4.759511
C -1.283054 6.708612 1.759524
Si -1.890918 5.308606 7.703116
C -1.283054 6.708612 4.703129
Si 2.947602 0.501719 6.231313
C 3.555467 1.901725 3.231326
Si 2.947602 0.501719 9.174918
C 3.555467 1.901725 6.174931
Si 2.947602 0.501719 12.118524
C 3.555467 1.901725 9.118536
Si 1.802960 2.905163 5.270286
C 2.410825 4.305168 2.270299
Si 1.802960 2.905163 8.213891
C 2.410825 4.305168 5.213904
Si 1.802960 2.905163 11.157497
C 2.410825 4.305168 8.157509
Si 0.658318 5.308606 4.309259
C 1.266183 6.708612 1.309272
Si 0.658318 5.308606 7.252864
C 1.266183 6.708612 4.252877
Si 0.658318 5.308606 10.196470
C 1.266183 6.708612 7.196482
Si 5.496839 0.501719 8.724666
C 6.104704 1.901725 5.724679
Si 5.496839 0.501719 11.668272
C 6.104704 1.901725 8.668284
Si 5.496839 0.501719 14.611877
C 6.104704 1.901725 11.611890
Si 4.352197 2.905163 7.763639
C 4.960062 4.305168 4.763652
Si 4.352197 2.905163 10.707245
C 4.960062 4.305168 7.707257
Si 4.352197 2.905163 13.650850
C 4.960062 4.305168 10.650863
Si 3.207555 5.308606 6.802612
C 3.815420 6.708612 3.802625
Si 3.207555 5.308606 9.746218
C 3.815420 6.708612 6.746230
Si 3.207555 5.308606 12.689823
C 3.815420 6.708612 9.689836
