54
A
Si 0.399514 0.519929 3.710521
C 1.058466 1.870548 0.424491
Si 0.399514 0.519929 6.638245
C 1.058466 1.870548 3.352216
Si 0.399514 0.519929 9.565970
C 1.058466 1.870548 6.279940
Si -0.677990 2.910406 2.649088
C -0.019038 4.261025 -0.636942
Si -0.677990 2.910406 5.576813
C -0.019038 4.261025 2.290783
Si -0.677990 2.910406 8.504537
C -0.019038 4.261025 5.218507
Si -1.755493 5.300883 1.587655
C -1.096541 6.651502 -1.698375
Si -1.755493 5.300883 4.515380
C -1.096541 6.651502 1.229350
Si -1.755493 5.300883 7.443104
C -1.096541 6.651502 4.157074
Si 2.934998 0.519929 5.979241
C 3.593950 1.870548 2.693212
Si 2.934998 0.519929 8.906966
C 3.593950 1.870548 5.620936
Si 2.934998 0.519929 11.834690
C 3.593950 1.870548 8.548661
Si 1.857494 2.910406 4.917809
C 2.516446 4.261025 1.631779
Si 1.857494 2.910406 7.845533
C 2.516446 4.261025 4.559503
Si 1.857494 2.910406 10.773258
C 2.516446 4.261025 7.487228
Si 0.779990 5.300883 3.856376
C 1.438942 6.651502 0.570346
Si 0.779990 5.300883 6.784100
C 1.438942 6.651502 3.498070
Si 0.779990 5.300883 9.711825
C 1.438942 6.651502 6.425795
Si 5.470481 0.519929 8.247962
C 6.129433 1.870548 4.961932
Si 5.470481 0.519929 11.175686
C 6.129433 1.870548 7.889657
Si 5.470481 0.519929 14.103411
C 6.129433 1.870548 10.817381
Si 4.392978 2.910406 7.186529
C 5.051930 4.261025 3.900499
Si 4.392978 2.910406 10.114254
C 5.051930 4.261025 6.828224
Si 4.392978 2.910406 13.041978
C 5.051930 4.261025 9.755948
Si 3.315474 5.300883 6.125096
C 3.974426 6.651502 2.839066
Si 3.315474 5.300883 9.052821
C 3.974426 6.651502 5.766791
Si 3.315474 5.300883 11.980545
C 3.974426 6.651502 8.694515
