54
A
Si 1.660628 0.548086 1.477861
C 2.395114 1.822015 -2.697074
Si 1.660628 0.548086 4.380629
C 2.395114 1.822015 0.205695
Si 1.660628 0.548086 7.283398
C 2.395114 1.822015 3.108464
Si 3.202499 2.918187 -1.192737
C 3.936984 4.192116 -5.367671
Si 3.202499 2.918187 1.710032
C 3.936984 4.192116 -2.464902
Si 3.202499 2.918187 4.612801
C 3.936984 4.192116 0.437866
Si 4.744370 5.288287 -3.863335
C 5.478855 6.562217 -8.038269
Si 4.744370 5.288287 -0.960566
C 5.478855 6.562217 -5.135500
Si 4.744370 5.288287 1.942203
C 5.478855 6.562217 -2.232731
Si 4.174500 0.548086 0.026476
C 4.908985 1.822015 -4.148458
Si 4.174500 0.548086 2.929245
C 4.908985 1.822015 -1.245689
Si 4.174500 0.548086 5.832014
C 4.908985 1.822015 1.657080
Si 5.716370 2.918187 -2.644121
C 6.450856 4.192116 -6.819055
Si 5.716370 2.918187 0.258648
C 6.450856 4.192116 -3.916287
Si 5.716370 2.918187 3.161416
C 6.450856 4.192116 -1.013518
Si 7.258241 5.288287 -5.314719
C 7.992726 6.562217 -9.489653
Si 7.258241 5.288287 -2.411950
C 7.992726 6.562217 -6.586884
Si 7.258241 5.288287 0.490819
C 7.992726 6.562217 -3.684116
Si 6.688371 0.548086 -1.424908
C 7.422856 1.822015 -5.599842
Si 6.688371 0.548086 1.477861
C 7.422856 1.822015 -2.697073
Si 6.688371 0.548086 4.380630
C 7.422856 1.822015 0.205696
Si 8.230242 2.918187 -4.095505
C 8.964727 4.192116 -8.270440
Si 8.230242 2.918187 -1.192737
C 8.964727 4.192116 -5.367671
Si 8.230242 2.918187 1.710032
C 8.964727 4.192116 -2.464902
Si 9.772112 5.288287 -6.766103
C 10.506598 6.562217 -10.941037
Si 9.772112 5.288287 -3.863334
C 10.506598 6.562217 -8.038268
Si 9.772112 5.288287 -0.960565
C 10.506598 6.562217 -5.135500
