54
A
Si 1.761105 0.347871 1.555655
C 1.875674 2.159306 -1.713437
Si 1.761105 0.347871 4.626308
C 1.875674 2.159306 1.357216
Si 1.761105 0.347871 7.696960
C 1.875674 2.159306 4.427868
Si 2.738621 2.855048 -0.137452
C 2.853190 4.666483 -3.406544
Si 2.738621 2.855048 2.933201
C 2.853190 4.666483 -0.335891
Si 2.738621 2.855048 6.003853
C 2.853190 4.666483 2.734761
Si 3.716136 5.362225 -1.830559
C 3.830705 7.173661 -5.099651
Si 3.716136 5.362225 1.240094
C 3.830705 7.173661 -2.028998
Si 3.716136 5.362225 4.310746
C 3.830705 7.173661 1.041654
Si 4.420368 0.347871 0.020329
C 4.534937 2.159306 -3.248763
Si 4.420368 0.347871 3.090981
C 4.534937 2.159306 -0.178111
Si 4.420368 0.347871 6.161634
C 4.534937 2.159306 2.892542
Si 5.397883 2.855048 -1.672778
C 5.512453 4.666483 -4.941870
Si 5.397883 2.855048 1.397874
C 5.512453 4.666483 -1.871218
Si 5.397883 2.855048 4.468527
C 5.512453 4.666483 1.199435
Si 6.375399 5.362225 -3.365885
C 6.489968 7.173661 -6.634977
Si 6.375399 5.362225 -0.295233
C 6.489968 7.173661 -3.564325
Si 6.375399 5.362225 2.775420
C 6.489968 7.173661 -0.493672
Si 7.079631 0.347871 -1.514998
C 7.194200 2.159306 -4.784090
Si 7.079631 0.347871 1.555655
C 7.194200 2.159306 -1.713437
Si 7.079631 0.347871 4.626307
C 7.194200 2.159306 1.357215
Si 8.057146 2.855048 -3.208105
C 8.171716 4.666483 -6.477197
Si 8.057146 2.855048 -0.137452
C 8.171716 4.666483 -3.406544
Si 8.057146 2.855048 2.933200
C 8.171716 4.666483 -0.335892
Si 9.034662 5.362225 -4.901212
C 9.149231 7.173661 -8.170304
Si 9.034662 5.362225 -1.830559
C 9.149231 7.173661 -5.099652
Si 9.034662 5.362225 1.240093
C 9.149231 7.173661 -2.028999
