54
A
Si 1.722778 0.401697 1.557381
C 2.021572 2.070285 -1.987692
Si 1.722778 0.401697 4.584928
C 2.021572 2.070285 1.039855
Si 1.722778 0.401697 7.612475
C 2.021572 2.070285 4.067402
Si 2.845196 2.873679 -0.386703
C 3.143990 4.542267 -3.931776
Si 2.845196 2.873679 2.640844
C 3.143990 4.542267 -0.904229
Si 2.845196 2.873679 5.668391
C 3.143990 4.542267 2.123318
Si 3.967614 5.345661 -2.330788
C 4.266407 7.014248 -5.875861
Si 3.967614 5.345661 0.696759
C 4.266407 7.014248 -2.848314
Si 3.967614 5.345661 3.724307
C 4.266407 7.014248 0.179234
Si 4.344711 0.401697 0.043607
C 4.643505 2.070285 -3.501466
Si 4.344711 0.401697 3.071154
C 4.643505 2.070285 -0.473919
Si 4.344711 0.401697 6.098702
C 4.643505 2.070285 2.553629
Si 5.467129 2.873679 -1.900477
C 5.765922 4.542267 -5.445550
Si 5.467129 2.873679 1.127070
C 5.765922 4.542267 -2.418003
Si 5.467129 2.873679 4.154617
C 5.765922 4.542267 0.609544
Si 6.589546 5.345661 -3.844562
C 6.888340 7.014248 -7.389635
Si 6.589546 5.345661 -0.817014
C 6.888340 7.014248 -4.362087
Si 6.589546 5.345661 2.210533
C 6.888340 7.014248 -1.334540
Si 6.966644 0.401697 -1.470167
C 7.265437 2.070285 -5.015240
Si 6.966644 0.401697 1.557381
C 7.265437 2.070285 -1.987692
Si 6.966644 0.401697 4.584928
C 7.265437 2.070285 1.039855
Si 8.089061 2.873679 -3.414251
C 8.387855 4.542267 -6.959324
Si 8.089061 2.873679 -0.386704
C 8.387855 4.542267 -3.931777
Si 8.089061 2.873679 2.640843
C 8.387855 4.542267 -0.904230
Si 9.211479 5.345661 -5.358335
C 9.510273 7.014248 -8.903408
Si 9.211479 5.345661 -2.330788
C 9.510273 7.014248 -5.875861
Si 9.211479 5.345661 0.696759
C 9.510273 7.014248 -2.848314
