54
A
Si 0.435369 0.339219 3.866281
C 0.519268 2.173515 3.483117
Si 0.435369 0.339219 6.943740
C 0.519268 2.173515 6.560575
Si 0.435369 0.339219 10.021198
C 0.519268 2.173515 9.638034
Si -1.275152 2.851953 3.751532
C -1.191253 4.686249 3.368367
Si -1.275152 2.851953 6.828990
C -1.191253 4.686249 6.445826
Si -1.275152 2.851953 9.906449
C -1.191253 4.686249 9.523284
Si -2.985672 5.364688 3.636782
C -2.901774 7.198984 3.253618
Si -2.985672 5.364688 6.714241
C -2.901774 7.198984 6.331076
Si -2.985672 5.364688 9.791699
C -2.901774 7.198984 9.408535
Si 3.100526 0.339219 8.252969
C 3.184425 2.173515 7.869805
Si 3.100526 0.339219 11.330428
C 3.184425 2.173515 10.947263
Si 3.100526 0.339219 14.407886
C 3.184425 2.173515 14.024722
Si 1.390005 2.851953 8.138220
C 1.473904 4.686249 7.755056
Si 1.390005 2.851953 11.215678
C 1.473904 4.686249 10.832514
Si 1.390005 2.851953 14.293137
C 1.473904 4.686249 13.909973
Si -0.320515 5.364688 8.023471
C -0.236617 7.198984 7.640306
Si -0.320515 5.364688 11.100929
C -0.236617 7.198984 10.717765
Si -0.320515 5.364688 14.178388
C -0.236617 7.198984 13.795223
Si 5.765683 0.339219 12.639658
C 5.849582 2.173515 12.256493
Si 5.765683 0.339219 15.717116
C 5.849582 2.173515 15.333952
Si 5.765683 0.339219 18.794575
C 5.849582 2.173515 18.411410
Si 4.055163 2.851953 12.524908
C 4.139061 4.686249 12.141744
Si 4.055163 2.851953 15.602367
C 4.139061 4.686249 15.219202
Si 4.055163 2.851953 18.679825
C 4.139061 4.686249 18.296661
Si 2.344642 5.364688 12.410159
C 2.428541 7.198984 12.026994
Si 2.344642 5.364688 15.487617
C 2.428541 7.198984 15.104453
Si 2.344642 5.364688 18.565076
C 2.428541 7.198984 18.181912
