54
A
Si 1.682075 0.477973 1.532597
C 2.220802 1.942142 -2.364530
Si 1.682075 0.477973 4.496620
C 2.220802 1.942142 0.599493
Si 1.682075 0.477973 7.460644
C 2.220802 1.942142 3.563517
Si 3.018032 2.898088 -0.781349
C 3.556760 4.362258 -4.678476
Si 3.018032 2.898088 2.182675
C 3.556760 4.362258 -1.714452
Si 3.018032 2.898088 5.146698
C 3.556760 4.362258 1.249571
Si 4.353989 5.318203 -3.095295
C 4.892717 6.782373 -6.992422
Si 4.353989 5.318203 -0.131271
C 4.892717 6.782373 -4.028398
Si 4.353989 5.318203 2.832753
C 4.892717 6.782373 -1.064375
Si 4.248994 0.477973 0.050585
C 4.787722 1.942142 -3.846542
Si 4.248994 0.477973 3.014608
C 4.787722 1.942142 -0.882519
Si 4.248994 0.477973 5.978632
C 4.787722 1.942142 2.081505
Si 5.584952 2.898088 -2.263361
C 6.123679 4.362258 -6.160488
Si 5.584952 2.898088 0.700663
C 6.123679 4.362258 -3.196464
Si 5.584952 2.898088 3.664686
C 6.123679 4.362258 -0.232441
Si 6.920909 5.318203 -4.577307
C 7.459637 6.782373 -8.474434
Si 6.920909 5.318203 -1.613283
C 7.459637 6.782373 -5.510410
Si 6.920909 5.318203 1.350741
C 7.459637 6.782373 -2.546386
Si 6.815914 0.477973 -1.431427
C 7.354642 1.942142 -5.328554
Si 6.815914 0.477973 1.532597
C 7.354642 1.942142 -2.364530
Si 6.815914 0.477973 4.496620
C 7.354642 1.942142 0.599493
Si 8.151871 2.898088 -3.745373
C 8.690599 4.362258 -7.642500
Si 8.151871 2.898088 -0.781349
C 8.690599 4.362258 -4.678476
Si 8.151871 2.898088 2.182675
C 8.690599 4.362258 -1.714453
Si 9.487829 5.318203 -6.059318
C 10.026556 6.782373 -9.956445
Si 9.487829 5.318203 -3.095295
C 10.026556 6.782373 -6.992422
Si 9.487829 5.318203 -0.131271
C 10.026556 6.782373 -4.028398
