54
A
Si 1.704546 0.432095 1.551527
C 2.102083 2.019510 -2.139619
Si 1.704546 0.432095 4.554119
C 2.102083 2.019510 0.862973
Si 1.704546 0.432095 7.556710
C 2.102083 2.019510 3.865564
Si 2.910854 2.883701 -0.537860
C 3.308391 4.471116 -4.229006
Si 2.910854 2.883701 2.464732
C 3.308391 4.471116 -1.226414
Si 2.910854 2.883701 5.467323
C 3.308391 4.471116 1.776177
Si 4.117162 5.335307 -2.627247
C 4.514700 6.922721 -6.318393
Si 4.117162 5.335307 0.375345
C 4.514700 6.922721 -3.315801
Si 4.117162 5.335307 3.377936
C 4.514700 6.922721 -0.313210
Si 4.304866 0.432095 0.050232
C 4.702403 2.019510 -3.640915
Si 4.304866 0.432095 3.052823
C 4.702403 2.019510 -0.638323
Si 4.304866 0.432095 6.055415
C 4.702403 2.019510 2.364268
Si 5.511174 2.883701 -2.039155
C 5.908712 4.471116 -5.730302
Si 5.511174 2.883701 0.963436
C 5.908712 4.471116 -2.727710
Si 5.511174 2.883701 3.966028
C 5.908712 4.471116 0.274881
Si 6.717483 5.335307 -4.128543
C 7.115020 6.922721 -7.819689
Si 6.717483 5.335307 -1.125951
C 7.115020 6.922721 -4.817097
Si 6.717483 5.335307 1.876641
C 7.115020 6.922721 -1.814506
Si 6.905187 0.432095 -1.451064
C 7.302724 2.019510 -5.142211
Si 6.905187 0.432095 1.551527
C 7.302724 2.019510 -2.139619
Si 6.905187 0.432095 4.554119
C 7.302724 2.019510 0.862972
Si 8.111495 2.883701 -3.540451
C 8.509032 4.471116 -7.231598
Si 8.111495 2.883701 -0.537860
C 8.509032 4.471116 -4.229006
Si 8.111495 2.883701 2.464732
C 8.509032 4.471116 -1.226415
Si 9.317803 5.335307 -5.629838
C 9.715340 6.922721 -9.320985
Si 9.317803 5.335307 -2.627247
C 9.715340 6.922721 -6.318393
Si 9.317803 5.335307 0.375345
C 9.715340 6.922721 -3.315802
