54
A
Si 1.709230 0.423861 1.553622
C 2.080413 2.033302 -2.098683
Si 1.709230 0.423861 4.563020
C 2.080413 2.033302 0.910715
Si 1.709230 0.423861 7.572417
C 2.080413 2.033302 3.920113
Si 2.892659 2.881023 -0.496137
C 3.263842 4.490465 -4.148442
Si 2.892659 2.881023 2.513261
C 3.263842 4.490465 -1.139044
Si 2.892659 2.881023 5.522658
C 3.263842 4.490465 1.870354
Si 4.076088 5.338186 -2.545896
C 4.447271 6.947628 -6.198201
Si 4.076088 5.338186 0.463502
C 4.447271 6.947628 -3.188803
Si 4.076088 5.338186 3.472899
C 4.447271 6.947628 -0.179405
Si 4.315445 0.423861 0.048923
C 4.686628 2.033302 -3.603382
Si 4.315445 0.423861 3.058321
C 4.686628 2.033302 -0.593984
Si 4.315445 0.423861 6.067718
C 4.686628 2.033302 2.415414
Si 5.498874 2.881023 -2.000836
C 5.870057 4.490465 -5.653141
Si 5.498874 2.881023 1.008562
C 5.870057 4.490465 -2.643743
Si 5.498874 2.881023 4.017959
C 5.870057 4.490465 0.365655
Si 6.682303 5.338186 -4.050595
C 7.053486 6.947628 -7.702900
Si 6.682303 5.338186 -1.041197
C 7.053486 6.947628 -4.693502
Si 6.682303 5.338186 1.968200
C 7.053486 6.947628 -1.684104
Si 6.921660 0.423861 -1.455776
C 7.292843 2.033302 -5.108081
Si 6.921660 0.423861 1.553622
C 7.292843 2.033302 -2.098683
Si 6.921660 0.423861 4.563020
C 7.292843 2.033302 0.910715
Si 8.105089 2.881023 -3.505535
C 8.476272 4.490465 -7.157840
Si 8.105089 2.881023 -0.496137
C 8.476272 4.490465 -4.148442
Si 8.105089 2.881023 2.513260
C 8.476272 4.490465 -1.139044
Si 9.288518 5.338186 -5.555294
C 9.659701 6.947628 -9.207599
Si 9.288518 5.338186 -2.545896
C 9.659701 6.947628 -6.198201
Si 9.288518 5.338186 0.463501
C 9.659701 6.947628 -3.188803
