54
A
Si 0.409499 0.410043 3.834379
C 0.735798 2.056382 2.297448
Si 0.409499 0.410043 6.855120
C 0.735798 2.056382 5.318189
Si 0.409499 0.410043 9.875861
C 0.735798 2.056382 8.338930
Si -1.061243 2.876468 3.361038
C -0.734943 4.522806 1.824107
Si -1.061243 2.876468 6.381779
C -0.734943 4.522806 4.844848
Si -1.061243 2.876468 9.402520
C -0.734943 4.522806 7.865589
Si -2.531984 5.342892 2.887696
C -2.205685 6.989231 1.350765
Si -2.531984 5.342892 5.908437
C -2.205685 6.989231 4.371506
Si -2.531984 5.342892 8.929178
C -2.205685 6.989231 7.392247
Si 3.025537 0.410043 7.418807
C 3.351837 2.056382 5.881876
Si 3.025537 0.410043 10.439548
C 3.351837 2.056382 8.902617
Si 3.025537 0.410043 13.460289
C 3.351837 2.056382 11.923358
Si 1.554796 2.876468 6.945465
C 1.881095 4.522806 5.408534
Si 1.554796 2.876468 9.966206
C 1.881095 4.522806 8.429275
Si 1.554796 2.876468 12.986948
C 1.881095 4.522806 11.450017
Si 0.084054 5.342892 6.472124
C 0.410354 6.989231 4.935193
Si 0.084054 5.342892 9.492865
C 0.410354 6.989231 7.955934
Si 0.084054 5.342892 12.513606
C 0.410354 6.989231 10.976675
Si 5.641576 0.410043 11.003235
C 5.967875 2.056382 9.466304
Si 5.641576 0.410043 14.023976
C 5.967875 2.056382 12.487045
Si 5.641576 0.410043 17.044717
C 5.967875 2.056382 15.507786
Si 4.170834 2.876468 10.529893
C 4.497133 4.522806 8.992962
Si 4.170834 2.876468 13.550634
C 4.497133 4.522806 12.013703
Si 4.170834 2.876468 16.571375
C 4.497133 4.522806 15.034444
Si 2.700093 5.342892 10.056551
C 3.026392 6.989231 8.519621
Si 2.700093 5.342892 13.077293
C 3.026392 6.989231 11.540362
Si 2.700093 5.342892 16.098034
C 3.026392 6.989231 14.561103
