54
A
Si 0.410009 0.573197 3.612660
C 1.208126 1.778380 -0.500407
Si 0.410009 0.573197 6.492742
C 1.208126 1.778380 2.379675
Si 0.410009 0.573197 9.372824
C 1.208126 1.778380 5.259757
Si -0.466080 2.924774 2.250010
C 0.332036 4.129957 -1.863057
Si -0.466080 2.924774 5.130092
C 0.332036 4.129957 1.017024
Si -0.466080 2.924774 8.010173
C 0.332036 4.129957 3.897106
Si -1.342169 5.276351 0.887359
C -0.544053 6.481534 -3.225708
Si -1.342169 5.276351 3.767441
C -0.544053 6.481534 -0.345626
Si -1.342169 5.276351 6.647523
C -0.544053 6.481534 2.534456
Si 2.904233 0.573197 5.207482
C 3.702349 1.778380 1.094415
Si 2.904233 0.573197 8.087564
C 3.702349 1.778380 3.974496
Si 2.904233 0.573197 10.967645
C 3.702349 1.778380 6.854578
Si 2.028144 2.924774 3.844831
C 2.826260 4.129957 -0.268236
Si 2.028144 2.924774 6.724913
C 2.826260 4.129957 2.611846
Si 2.028144 2.924774 9.604995
C 2.826260 4.129957 5.491928
Si 1.152055 5.276351 2.482181
C 1.950171 6.481534 -1.630886
Si 1.152055 5.276351 5.362263
C 1.950171 6.481534 1.249196
Si 1.152055 5.276351 8.242345
C 1.950171 6.481534 4.129278
Si 5.398457 0.573197 6.802303
C 6.196573 1.778380 2.689236
Si 5.398457 0.573197 9.682385
C 6.196573 1.778380 5.569318
Si 5.398457 0.573197 12.562467
C 6.196573 1.778380 8.449400
Si 4.522368 2.924774 5.439653
C 5.320484 4.129957 1.326586
Si 4.522368 2.924774 8.319735
C 5.320484 4.129957 4.206668
Si 4.522368 2.924774 11.199817
C 5.320484 4.129957 7.086749
Si 3.646279 5.276351 4.077003
C 4.444395 6.481534 -0.036064
Si 3.646279 5.276351 6.957084
C 4.444395 6.481534 2.844017
Si 3.646279 5.276351 9.837166
C 4.444395 6.481534 5.724099
