54
A
Ti 0.000001 0.000005 0.000000
Ti -1.468758 0.848000 2.309955
Ti 0.000001 0.000005 4.619910
Ti -1.468758 0.848000 6.929864
Ti 0.000001 0.000005 9.239819
Ti -1.468758 0.848000 11.549774
Ti -4.406269 2.543971 0.000000
Ti -5.875029 3.391966 2.309955
Ti -4.406269 2.543971 4.619910
Ti -5.875029 3.391966 6.929864
Ti -4.406269 2.543971 9.239819
Ti -5.875029 3.391966 11.549774
Ti -8.812540 5.087937 0.000000
Ti -10.281299 5.935932 2.309955
Ti -8.812540 5.087937 4.619910
Ti -10.281299 5.935932 6.929864
Ti -8.812540 5.087937 9.239819
Ti -10.281299 5.935932 11.549774
Ti 2.937517 0.000005 0.000000
Ti 1.468757 0.848000 2.309955
Ti 2.937517 0.000005 4.619910
Ti 1.468757 0.848000 6.929864
Ti 2.937517 0.000005 9.239819
Ti 1.468757 0.848000 11.549774
Ti -1.468754 2.543971 0.000000
Ti -2.937513 3.391966 2.309955
Ti -1.468754 2.543971 4.619910
Ti -2.937513 3.391966 6.929864
Ti -1.468754 2.543971 9.239819
Ti -2.937513 3.391966 11.549774
Ti -5.875024 5.087937 0.000000
Ti -7.343784 5.935932 2.309955
Ti -5.875024 5.087937 4.619910
Ti -7.343784 5.935932 6.929864
Ti -5.875024 5.087937 9.239819
Ti -7.343784 5.935932 11.549774
Ti 5.875032 0.000005 0.000000
Ti 4.406272 0.848000 2.309955
Ti 5.875032 0.000005 4.619910
Ti 4.406272 0.848000 6.929864
Ti 5.875032 0.000005 9.239819
Ti 4.406272 0.848000 11.549774
Ti 1.468762 2.543971 0.000000
Ti 0.000002 3.391966 2.309955
Ti 1.468762 2.543971 4.619910
Ti 0.000002 3.391966 6.929864
Ti 1.468762 2.543971 9.239819
Ti 0.000002 3.391966 11.549774
Ti -2.937509 5.087937 0.000000
Ti -4.406269 5.935932 2.309955
Ti -2.937509 5.087937 4.619910
Ti -4.406269 5.935932 6.929864
Ti -2.937509 5.087937 9.239819
Ti -4.406269 5.935932 11.549774
