54
A
Ti 1.845801 2.101856 5.770933
Ti 2.181153 0.458784 3.462560
Ti 1.845801 2.101856 10.387679
Ti 2.181153 0.458784 8.079306
Ti 1.845801 2.101856 15.004426
Ti 2.181153 0.458784 12.696052
Ti 2.953437 4.662497 5.770933
Ti 3.288789 3.019425 3.462560
Ti 2.953437 4.662497 10.387679
Ti 3.288789 3.019425 8.079306
Ti 2.953437 4.662497 15.004426
Ti 3.288789 3.019425 12.696052
Ti 4.061074 7.223138 5.770933
Ti 4.396426 5.580065 3.462560
Ti 4.061074 7.223138 10.387679
Ti 4.396426 5.580065 8.079306
Ti 4.061074 7.223138 15.004426
Ti 4.396426 5.580065 12.696052
Ti 4.765118 2.101856 10.387679
Ti 5.100469 0.458784 8.079306
Ti 4.765118 2.101856 15.004426
Ti 5.100469 0.458784 12.696052
Ti 4.765118 2.101856 19.621172
Ti 5.100469 0.458784 17.312799
Ti 5.872754 4.662497 10.387679
Ti 6.208106 3.019425 8.079306
Ti 5.872754 4.662497 15.004426
Ti 6.208106 3.019425 12.696052
Ti 5.872754 4.662497 19.621172
Ti 6.208106 3.019425 17.312799
Ti 6.980391 7.223138 10.387679
Ti 7.315743 5.580065 8.079306
Ti 6.980391 7.223138 15.004426
Ti 7.315743 5.580065 12.696052
Ti 6.980391 7.223138 19.621172
Ti 7.315743 5.580065 17.312799
Ti 7.684434 2.101856 15.004426
Ti 8.019786 0.458784 12.696052
Ti 7.684434 2.101856 19.621172
Ti 8.019786 0.458784 17.312799
Ti 7.684434 2.101856 24.237918
Ti 8.019786 0.458784 21.929545
Ti 8.792071 4.662497 15.004426
Ti 9.127423 3.019425 12.696052
Ti 8.792071 4.662497 19.621172
Ti 9.127423 3.019425 17.312799
Ti 8.792071 4.662497 24.237918
Ti 9.127423 3.019425 21.929545
Ti 9.899707 7.223138 15.004426
Ti 10.235059 5.580065 12.696052
Ti 9.899707 7.223138 19.621172
Ti 10.235059 5.580065 17.312799
Ti 9.899707 7.223138 24.237918
Ti 10.235059 5.580065 21.929545
