54
A
Ti -0.259067 2.041097 3.454968
Ti -0.875773 0.572903 1.151656
Ti -0.259067 2.041097 8.061592
Ti -0.875773 0.572903 5.758280
Ti -0.259067 2.041097 12.668216
Ti -0.875773 0.572903 10.364904
Ti -4.254987 4.655097 3.454968
Ti -4.871694 3.186902 1.151656
Ti -4.254987 4.655097 8.061592
Ti -4.871694 3.186902 5.758280
Ti -4.254987 4.655097 12.668216
Ti -4.871694 3.186902 10.364904
Ti -8.250908 7.269096 3.454968
Ti -8.867615 5.800902 1.151656
Ti -8.250908 7.269096 8.061592
Ti -8.867615 5.800902 5.758280
Ti -8.250908 7.269096 12.668216
Ti -8.867615 5.800902 10.364904
Ti 2.602015 2.041097 3.454968
Ti 1.985308 0.572903 1.151656
Ti 2.602015 2.041097 8.061592
Ti 1.985308 0.572903 5.758280
Ti 2.602015 2.041097 12.668216
Ti 1.985308 0.572903 10.364904
Ti -1.393906 4.655097 3.454968
Ti -2.010613 3.186902 1.151656
Ti -1.393906 4.655097 8.061592
Ti -2.010613 3.186902 5.758280
Ti -1.393906 4.655097 12.668216
Ti -2.010613 3.186902 10.364904
Ti -5.389827 7.269096 3.454968
Ti -6.006533 5.800902 1.151656
Ti -5.389827 7.269096 8.061592
Ti -6.006533 5.800902 5.758280
Ti -5.389827 7.269096 12.668216
Ti -6.006533 5.800902 10.364904
Ti 5.463096 2.041097 3.454968
Ti 4.846389 0.572903 1.151656
Ti 5.463096 2.041097 8.061592
Ti 4.846389 0.572903 5.758280
Ti 5.463096 2.041097 12.668216
Ti 4.846389 0.572903 10.364904
Ti 1.467175 4.655097 3.454968
Ti 0.850469 3.186902 1.151656
Ti 1.467175 4.655097 8.061592
Ti 0.850469 3.186902 5.758280
Ti 1.467175 4.655097 12.668216
Ti 0.850469 3.186902 10.364904
Ti -2.528746 7.269096 3.454968
Ti -3.145452 5.800902 1.151656
Ti -2.528746 7.269096 8.061592
Ti -3.145452 5.800902 5.758280
Ti -2.528746 7.269096 12.668216
Ti -3.145452 5.800902 10.364904
