54
A
Ti -0.420152 2.069475 3.458447
Ti -0.831294 0.520069 1.152816
Ti -0.420152 2.069475 8.069711
Ti -0.831294 0.520069 5.764079
Ti -0.420152 2.069475 12.680974
Ti -0.831294 0.520069 10.375342
Ti -4.559369 4.659018 3.458447
Ti -4.970511 3.109612 1.152816
Ti -4.559369 4.659018 8.069711
Ti -4.970511 3.109612 5.764079
Ti -4.559369 4.659018 12.680974
Ti -4.970511 3.109612 10.375342
Ti -8.698587 7.248562 3.458447
Ti -9.109729 5.699155 1.152816
Ti -8.698587 7.248562 8.069711
Ti -9.109729 5.699155 5.764079
Ti -8.698587 7.248562 12.680974
Ti -9.109729 5.699155 10.375342
Ti 2.467621 2.069475 3.458447
Ti 2.056479 0.520069 1.152816
Ti 2.467621 2.069475 8.069711
Ti 2.056479 0.520069 5.764079
Ti 2.467621 2.069475 12.680974
Ti 2.056479 0.520069 10.375342
Ti -1.671597 4.659018 3.458447
Ti -2.082739 3.109612 1.152816
Ti -1.671597 4.659018 8.069711
Ti -2.082739 3.109612 5.764079
Ti -1.671597 4.659018 12.680974
Ti -2.082739 3.109612 10.375342
Ti -5.810814 7.248562 3.458447
Ti -6.221956 5.699155 1.152816
Ti -5.810814 7.248562 8.069711
Ti -6.221956 5.699155 5.764079
Ti -5.810814 7.248562 12.680974
Ti -6.221956 5.699155 10.375342
Ti 5.355393 2.069475 3.458447
Ti 4.944251 0.520069 1.152816
Ti 5.355393 2.069475 8.069711
Ti 4.944251 0.520069 5.764079
Ti 5.355393 2.069475 12.680974
Ti 4.944251 0.520069 10.375342
Ti 1.216176 4.659018 3.458447
Ti 0.805034 3.109612 1.152816
Ti 1.216176 4.659018 8.069711
Ti 0.805034 3.109612 5.764079
Ti 1.216176 4.659018 12.680974
Ti 0.805034 3.109612 10.375342
Ti -2.923042 7.248562 3.458447
Ti -3.334184 5.699155 1.152816
Ti -2.923042 7.248562 8.069711
Ti -3.334184 5.699155 5.764079
Ti -2.923042 7.248562 12.680974
Ti -3.334184 5.699155 10.375342
