54
A
Ti -0.571152 2.094495 3.461611
Ti -0.786298 0.472816 1.153870
Ti -0.571152 2.094495 8.077092
Ti -0.786298 0.472816 5.769351
Ti -0.571152 2.094495 12.692573
Ti -0.786298 0.472816 10.384832
Ti -4.840639 4.661805 3.461611
Ti -5.055786 3.040126 1.153870
Ti -4.840639 4.661805 8.077092
Ti -5.055786 3.040126 5.769351
Ti -4.840639 4.661805 12.692573
Ti -5.055786 3.040126 10.384832
Ti -9.110126 7.229116 3.461611
Ti -9.325273 5.607437 1.153870
Ti -9.110126 7.229116 8.077092
Ti -9.325273 5.607437 5.769351
Ti -9.110126 7.229116 12.692573
Ti -9.325273 5.607437 10.384832
Ti 2.340886 2.094495 3.461611
Ti 2.125739 0.472816 1.153870
Ti 2.340886 2.094495 8.077092
Ti 2.125739 0.472816 5.769351
Ti 2.340886 2.094495 12.692573
Ti 2.125739 0.472816 10.384832
Ti -1.928602 4.661805 3.461611
Ti -2.143748 3.040126 1.153870
Ti -1.928602 4.661805 8.077092
Ti -2.143748 3.040126 5.769351
Ti -1.928602 4.661805 12.692573
Ti -2.143748 3.040126 10.384832
Ti -6.198089 7.229116 3.461611
Ti -6.413236 5.607437 1.153870
Ti -6.198089 7.229116 8.077092
Ti -6.413236 5.607437 5.769351
Ti -6.198089 7.229116 12.692573
Ti -6.413236 5.607437 10.384832
Ti 5.252923 2.094495 3.461611
Ti 5.037776 0.472816 1.153870
Ti 5.252923 2.094495 8.077092
Ti 5.037776 0.472816 5.769351
Ti 5.252923 2.094495 12.692573
Ti 5.037776 0.472816 10.384832
Ti 0.983436 4.661805 3.461611
Ti 0.768289 3.040126 1.153870
Ti 0.983436 4.661805 8.077092
Ti 0.768289 3.040126 5.769351
Ti 0.983436 4.661805 12.692573
Ti 0.768289 3.040126 10.384832
Ti -3.286052 7.229116 3.461611
Ti -3.501198 5.607437 1.153870
Ti -3.286052 7.229116 8.077092
Ti -3.501198 5.607437 5.769351
Ti -3.286052 7.229116 12.692573
Ti -3.501198 5.607437 10.384832
