54
A
Ti -0.625028 2.103077 3.462718
Ti -0.769524 0.456452 1.154239
Ti -0.625028 2.103077 8.079675
Ti -0.769524 0.456452 5.771197
Ti -0.625028 2.103077 12.696632
Ti -0.769524 0.456452 10.388154
Ti -4.940109 4.662606 3.462718
Ti -5.084606 3.015981 1.154239
Ti -4.940109 4.662606 8.079675
Ti -5.084606 3.015981 5.771197
Ti -4.940109 4.662606 12.696632
Ti -5.084606 3.015981 10.388154
Ti -9.255191 7.222135 3.462718
Ti -9.399688 5.575510 1.154239
Ti -9.255191 7.222135 8.079675
Ti -9.399688 5.575510 5.771197
Ti -9.255191 7.222135 12.696632
Ti -9.399688 5.575510 10.388154
Ti 2.295502 2.103077 3.462718
Ti 2.151006 0.456452 1.154239
Ti 2.295502 2.103077 8.079675
Ti 2.151006 0.456452 5.771197
Ti 2.295502 2.103077 12.696632
Ti 2.151006 0.456452 10.388154
Ti -2.019579 4.662606 3.462718
Ti -2.164076 3.015981 1.154239
Ti -2.019579 4.662606 8.079675
Ti -2.164076 3.015981 5.771197
Ti -2.019579 4.662606 12.696632
Ti -2.164076 3.015981 10.388154
Ti -6.334661 7.222135 3.462718
Ti -6.479158 5.575510 1.154239
Ti -6.334661 7.222135 8.079675
Ti -6.479158 5.575510 5.771197
Ti -6.334661 7.222135 12.696632
Ti -6.479158 5.575510 10.388154
Ti 5.216032 2.103077 3.462718
Ti 5.071536 0.456452 1.154239
Ti 5.216032 2.103077 8.079675
Ti 5.071536 0.456452 5.771197
Ti 5.216032 2.103077 12.696632
Ti 5.071536 0.456452 10.388154
Ti 0.900951 4.662606 3.462718
Ti 0.756454 3.015981 1.154239
Ti 0.900951 4.662606 8.079675
Ti 0.756454 3.015981 5.771197
Ti 0.900951 4.662606 12.696632
Ti 0.756454 3.015981 10.388154
Ti -3.414131 7.222135 3.462718
Ti -3.558628 5.575510 1.154239
Ti -3.414131 7.222135 8.079675
Ti -3.558628 5.575510 5.771197
Ti -3.414131 7.222135 12.696632
Ti -3.558628 5.575510 10.388154
