54
A
Ti 1.775471 2.098184 5.770142
Ti 2.175618 0.465792 3.462085
Ti 1.775471 2.098184 10.386256
Ti 2.175618 0.465792 8.078199
Ti 1.775471 2.098184 15.002369
Ti 2.175618 0.465792 12.694313
Ti 2.810883 4.662160 5.770142
Ti 3.211030 3.029767 3.462085
Ti 2.810883 4.662160 10.386256
Ti 3.211030 3.029767 8.078199
Ti 2.810883 4.662160 15.002369
Ti 3.211030 3.029767 12.694313
Ti 3.846295 7.226135 5.770142
Ti 4.246442 5.593743 3.462085
Ti 3.846295 7.226135 10.386256
Ti 4.246442 5.593743 8.078199
Ti 3.846295 7.226135 15.002369
Ti 4.246442 5.593743 12.694313
Ti 4.691148 2.098184 10.386256
Ti 5.091295 0.465792 8.078199
Ti 4.691148 2.098184 15.002369
Ti 5.091295 0.465792 12.694313
Ti 4.691148 2.098184 19.618483
Ti 5.091295 0.465792 17.310426
Ti 5.726560 4.662160 10.386256
Ti 6.126707 3.029767 8.078199
Ti 5.726560 4.662160 15.002369
Ti 6.126707 3.029767 12.694313
Ti 5.726560 4.662160 19.618483
Ti 6.126707 3.029767 17.310426
Ti 6.761972 7.226135 10.386256
Ti 7.162119 5.593743 8.078199
Ti 6.761972 7.226135 15.002369
Ti 7.162119 5.593743 12.694313
Ti 6.761972 7.226135 19.618483
Ti 7.162119 5.593743 17.310426
Ti 7.606825 2.098184 15.002369
Ti 8.006972 0.465792 12.694313
Ti 7.606825 2.098184 19.618483
Ti 8.006972 0.465792 17.310426
Ti 7.606825 2.098184 24.234597
Ti 8.006972 0.465792 21.926540
Ti 8.642237 4.662160 15.002369
Ti 9.042384 3.029767 12.694313
Ti 8.642237 4.662160 19.618483
Ti 9.042384 3.029767 17.310426
Ti 8.642237 4.662160 24.234597
Ti 9.042384 3.029767 21.926540
Ti 9.677649 7.226135 15.002369
Ti 10.077796 5.593743 12.694313
Ti 9.677649 7.226135 19.618483
Ti 10.077796 5.593743 17.310426
Ti 9.677649 7.226135 24.234597
Ti 10.077796 5.593743 21.926540
