54
A
Ti 1.612843 2.089550 5.768297
Ti 2.161229 0.482207 3.460978
Ti 1.612843 2.089550 10.382934
Ti 2.161229 0.482207 8.075616
Ti 1.612843 2.089550 14.997572
Ti 2.161229 0.482207 12.690253
Ti 2.479730 4.661307 5.768297
Ti 3.028117 3.053964 3.460978
Ti 2.479730 4.661307 10.382934
Ti 3.028117 3.053964 8.075616
Ti 2.479730 4.661307 14.997572
Ti 3.028117 3.053964 12.690253
Ti 3.346618 7.233064 5.768297
Ti 3.895004 5.625721 3.460978
Ti 3.346618 7.233064 10.382934
Ti 3.895004 5.625721 8.075616
Ti 3.346618 7.233064 14.997572
Ti 3.895004 5.625721 12.690253
Ti 4.520027 2.089550 10.382934
Ti 5.068413 0.482207 8.075616
Ti 4.520027 2.089550 14.997572
Ti 5.068413 0.482207 12.690253
Ti 4.520027 2.089550 19.612209
Ti 5.068413 0.482207 17.304890
Ti 5.386915 4.661307 10.382934
Ti 5.935301 3.053964 8.075616
Ti 5.386915 4.661307 14.997572
Ti 5.935301 3.053964 12.690253
Ti 5.386915 4.661307 19.612209
Ti 5.935301 3.053964 17.304890
Ti 6.253802 7.233064 10.382934
Ti 6.802188 5.625721 8.075616
Ti 6.253802 7.233064 14.997572
Ti 6.802188 5.625721 12.690253
Ti 6.253802 7.233064 19.612209
Ti 6.802188 5.625721 17.304890
Ti 7.427212 2.089550 14.997572
Ti 7.975598 0.482207 12.690253
Ti 7.427212 2.089550 19.612209
Ti 7.975598 0.482207 17.304890
Ti 7.427212 2.089550 24.226847
Ti 7.975598 0.482207 21.919528
Ti 8.294099 4.661307 14.997572
Ti 8.842485 3.053964 12.690253
Ti 8.294099 4.661307 19.612209
Ti 8.842485 3.053964 17.304890
Ti 8.294099 4.661307 24.226847
Ti 8.842485 3.053964 21.919528
Ti 9.160987 7.233064 14.997572
Ti 9.709373 5.625721 12.690253
Ti 9.160987 7.233064 19.612209
Ti 9.709373 5.625721 17.304890
Ti 9.160987 7.233064 24.226847
Ti 9.709373 5.625721 21.919528
