54
A
Ti 1.004909 2.055398 5.761179
Ti 2.086383 0.546374 3.456708
Ti 1.004909 2.055398 10.370123
Ti 2.086383 0.546374 8.065651
Ti 1.004909 2.055398 14.979067
Ti 2.086383 0.546374 12.674595
Ti 1.221774 4.657169 5.761179
Ti 2.303248 3.148145 3.456708
Ti 1.221774 4.657169 10.370123
Ti 2.303248 3.148145 8.065651
Ti 1.221774 4.657169 14.979067
Ti 2.303248 3.148145 12.674595
Ti 1.438639 7.258941 5.761179
Ti 2.520113 5.749917 3.456708
Ti 1.438639 7.258941 10.370123
Ti 2.520113 5.749917 8.065651
Ti 1.438639 7.258941 14.979067
Ti 2.520113 5.749917 12.674595
Ti 3.879335 2.055398 10.370123
Ti 4.960810 0.546374 8.065651
Ti 3.879335 2.055398 14.979067
Ti 4.960810 0.546374 12.674595
Ti 3.879335 2.055398 19.588010
Ti 4.960810 0.546374 17.283538
Ti 4.096200 4.657169 10.370123
Ti 5.177675 3.148145 8.065651
Ti 4.096200 4.657169 14.979067
Ti 5.177675 3.148145 12.674595
Ti 4.096200 4.657169 19.588010
Ti 5.177675 3.148145 17.283538
Ti 4.313066 7.258941 10.370123
Ti 5.394540 5.749917 8.065651
Ti 4.313066 7.258941 14.979067
Ti 5.394540 5.749917 12.674595
Ti 4.313066 7.258941 19.588010
Ti 5.394540 5.749917 17.283538
Ti 6.753762 2.055398 14.979067
Ti 7.835237 0.546374 12.674595
Ti 6.753762 2.055398 19.588010
Ti 7.835237 0.546374 17.283538
Ti 6.753762 2.055398 24.196954
Ti 7.835237 0.546374 21.892482
Ti 6.970627 4.657169 14.979067
Ti 8.052102 3.148145 12.674595
Ti 6.970627 4.657169 19.588010
Ti 8.052102 3.148145 17.283538
Ti 6.970627 4.657169 24.196954
Ti 8.052102 3.148145 21.892482
Ti 7.187492 7.258941 14.979067
Ti 8.268967 5.749917 12.674595
Ti 7.187492 7.258941 19.588010
Ti 8.268967 5.749917 17.283538
Ti 7.187492 7.258941 24.196954
Ti 8.268967 5.749917 21.892482
