54
A
Ti -0.640519 2.105512 3.463034
Ti -0.764634 0.451793 1.154345
Ti -0.640519 2.105512 8.080413
Ti -0.764634 0.451793 5.771724
Ti -0.640519 2.105512 12.697792
Ti -0.764634 0.451793 10.389103
Ti -4.968627 4.662818 3.463034
Ti -5.092742 3.009099 1.154345
Ti -4.968627 4.662818 8.080413
Ti -5.092742 3.009099 5.771724
Ti -4.968627 4.662818 12.697792
Ti -5.092742 3.009099 10.389103
Ti -9.296736 7.220124 3.463034
Ti -9.420851 5.566405 1.154345
Ti -9.296736 7.220124 8.080413
Ti -9.420851 5.566405 5.771724
Ti -9.296736 7.220124 12.697792
Ti -9.420851 5.566405 10.389103
Ti 2.282438 2.105512 3.463034
Ti 2.158323 0.451793 1.154345
Ti 2.282438 2.105512 8.080413
Ti 2.158323 0.451793 5.771724
Ti 2.282438 2.105512 12.697792
Ti 2.158323 0.451793 10.389103
Ti -2.045671 4.662818 3.463034
Ti -2.169786 3.009099 1.154345
Ti -2.045671 4.662818 8.080413
Ti -2.169786 3.009099 5.771724
Ti -2.045671 4.662818 12.697792
Ti -2.169786 3.009099 10.389103
Ti -6.373779 7.220124 3.463034
Ti -6.497895 5.566405 1.154345
Ti -6.373779 7.220124 8.080413
Ti -6.497895 5.566405 5.771724
Ti -6.373779 7.220124 12.697792
Ti -6.497895 5.566405 10.389103
Ti 5.205394 2.105512 3.463034
Ti 5.081279 0.451793 1.154345
Ti 5.205394 2.105512 8.080413
Ti 5.081279 0.451793 5.771724
Ti 5.205394 2.105512 12.697792
Ti 5.081279 0.451793 10.389103
Ti 0.877286 4.662818 3.463034
Ti 0.753171 3.009099 1.154345
Ti 0.877286 4.662818 8.080413
Ti 0.753171 3.009099 5.771724
Ti 0.877286 4.662818 12.697792
Ti 0.753171 3.009099 10.389103
Ti -3.450823 7.220124 3.463034
Ti -3.574938 5.566405 1.154345
Ti -3.450823 7.220124 8.080413
Ti -3.574938 5.566405 5.771724
Ti -3.450823 7.220124 12.697792
Ti -3.574938 5.566405 10.389103
