54
A
Ti -0.159294 2.022571 3.452754
Ti -0.901342 0.606991 1.150918
Ti -0.159294 2.022571 8.056425
Ti -0.901342 0.606991 5.754589
Ti -0.159294 2.022571 12.660096
Ti -0.901342 0.606991 10.358261
Ti -4.064026 4.652134 3.452754
Ti -4.806074 3.236554 1.150918
Ti -4.064026 4.652134 8.056425
Ti -4.806074 3.236554 5.754589
Ti -4.064026 4.652134 12.660096
Ti -4.806074 3.236554 10.358261
Ti -7.968757 7.281697 3.452754
Ti -8.710806 5.866117 1.150918
Ti -7.968757 7.281697 8.056425
Ti -8.710806 5.866117 5.754589
Ti -7.968757 7.281697 12.660096
Ti -8.710806 5.866117 10.358261
Ti 2.684802 2.022571 3.452754
Ti 1.942753 0.606991 1.150918
Ti 2.684802 2.022571 8.056425
Ti 1.942753 0.606991 5.754589
Ti 2.684802 2.022571 12.660096
Ti 1.942753 0.606991 10.358261
Ti -1.219930 4.652134 3.452754
Ti -1.961979 3.236554 1.150918
Ti -1.219930 4.652134 8.056425
Ti -1.961979 3.236554 5.754589
Ti -1.219930 4.652134 12.660096
Ti -1.961979 3.236554 10.358261
Ti -5.124662 7.281697 3.452754
Ti -5.866711 5.866117 1.150918
Ti -5.124662 7.281697 8.056425
Ti -5.866711 5.866117 5.754589
Ti -5.124662 7.281697 12.660096
Ti -5.866711 5.866117 10.358261
Ti 5.528898 2.022571 3.452754
Ti 4.786849 0.606991 1.150918
Ti 5.528898 2.022571 8.056425
Ti 4.786849 0.606991 5.754589
Ti 5.528898 2.022571 12.660096
Ti 4.786849 0.606991 10.358261
Ti 1.624166 4.652134 3.452754
Ti 0.882117 3.236554 1.150918
Ti 1.624166 4.652134 8.056425
Ti 0.882117 3.236554 5.754589
Ti 1.624166 4.652134 12.660096
Ti 0.882117 3.236554 10.358261
Ti -2.280566 7.281697 3.452754
Ti -3.022615 5.866117 1.150918
Ti -2.280566 7.281697 8.056425
Ti -3.022615 5.866117 5.754589
Ti -2.280566 7.281697 12.660096
Ti -3.022615 5.866117 10.358261
