54
A
Ti 1.384100 2.077059 5.765661
Ti 2.137091 0.505815 3.459396
Ti 1.384100 2.077059 10.378189
Ti 2.137091 0.505815 8.071925
Ti 1.384100 2.077059 14.990718
Ti 2.137091 0.505815 12.684454
Ti 2.010238 4.659932 5.765661
Ti 2.763229 3.088688 3.459396
Ti 2.010238 4.659932 10.378189
Ti 2.763229 3.088688 8.071925
Ti 2.010238 4.659932 14.990718
Ti 2.763229 3.088688 12.684454
Ti 2.636377 7.242806 5.765661
Ti 3.389368 5.671562 3.459396
Ti 2.636377 7.242806 10.378189
Ti 3.389368 5.671562 8.071925
Ti 2.636377 7.242806 14.990718
Ti 3.389368 5.671562 12.684454
Ti 4.279152 2.077059 10.378189
Ti 5.032143 0.505815 8.071925
Ti 4.279152 2.077059 14.990718
Ti 5.032143 0.505815 12.684454
Ti 4.279152 2.077059 19.603247
Ti 5.032143 0.505815 17.296982
Ti 4.905290 4.659932 10.378189
Ti 5.658281 3.088688 8.071925
Ti 4.905290 4.659932 14.990718
Ti 5.658281 3.088688 12.684454
Ti 4.905290 4.659932 19.603247
Ti 5.658281 3.088688 17.296982
Ti 5.531428 7.242806 10.378189
Ti 6.284420 5.671562 8.071925
Ti 5.531428 7.242806 14.990718
Ti 6.284420 5.671562 12.684454
Ti 5.531428 7.242806 19.603247
Ti 6.284420 5.671562 17.296982
Ti 7.174203 2.077059 14.990718
Ti 7.927195 0.505815 12.684454
Ti 7.174203 2.077059 19.603247
Ti 7.927195 0.505815 17.296982
Ti 7.174203 2.077059 24.215775
Ti 7.927195 0.505815 21.909511
Ti 7.800342 4.659932 14.990718
Ti 8.553333 3.088688 12.684454
Ti 7.800342 4.659932 19.603247
Ti 8.553333 3.088688 17.296982
Ti 7.800342 4.659932 24.215775
Ti 8.553333 3.088688 21.909511
Ti 8.426480 7.242806 14.990718
Ti 9.179472 5.671562 12.684454
Ti 8.426480 7.242806 19.603247
Ti 9.179472 5.671562 17.296982
Ti 8.426480 7.242806 24.215775
Ti 9.179472 5.671562 21.909511
