54
A
Ti -0.103236 2.011822 3.451488
Ti -0.914998 0.626634 1.150496
Ti -0.103236 2.011822 8.053473
Ti -0.914998 0.626634 5.752480
Ti -0.103236 2.011822 12.655457
Ti -0.914998 0.626634 10.354465
Ti -3.955860 4.650278 3.451488
Ti -4.767622 3.265090 1.150496
Ti -3.955860 4.650278 8.053473
Ti -4.767622 3.265090 5.752480
Ti -3.955860 4.650278 12.655457
Ti -4.767622 3.265090 10.354465
Ti -7.808484 7.288734 3.451488
Ti -8.620246 5.903546 1.150496
Ti -7.808484 7.288734 8.053473
Ti -8.620246 5.903546 5.752480
Ti -7.808484 7.288734 12.655457
Ti -8.620246 5.903546 10.354465
Ti 2.731154 2.011822 3.451488
Ti 1.919392 0.626634 1.150496
Ti 2.731154 2.011822 8.053473
Ti 1.919392 0.626634 5.752480
Ti 2.731154 2.011822 12.655457
Ti 1.919392 0.626634 10.354465
Ti -1.121470 4.650278 3.451488
Ti -1.933232 3.265090 1.150496
Ti -1.121470 4.650278 8.053473
Ti -1.933232 3.265090 5.752480
Ti -1.121470 4.650278 12.655457
Ti -1.933232 3.265090 10.354465
Ti -4.974094 7.288734 3.451488
Ti -5.785856 5.903546 1.150496
Ti -4.974094 7.288734 8.053473
Ti -5.785856 5.903546 5.752480
Ti -4.974094 7.288734 12.655457
Ti -5.785856 5.903546 10.354465
Ti 5.565544 2.011822 3.451488
Ti 4.753781 0.626634 1.150496
Ti 5.565544 2.011822 8.053473
Ti 4.753781 0.626634 5.752480
Ti 5.565544 2.011822 12.655457
Ti 4.753781 0.626634 10.354465
Ti 1.712920 4.650278 3.451488
Ti 0.901157 3.265090 1.150496
Ti 1.712920 4.650278 8.053473
Ti 0.901157 3.265090 5.752480
Ti 1.712920 4.650278 12.655457
Ti 0.901157 3.265090 10.354465
Ti -2.139704 7.288734 3.451488
Ti -2.951467 5.903546 1.150496
Ti -2.139704 7.288734 8.053473
Ti -2.951467 5.903546 5.752480
Ti -2.139704 7.288734 12.655457
Ti -2.951467 5.903546 10.354465
