54
A
Ti 0.283068 2.010470 5.752217
Ti 1.948427 0.629097 3.451330
Ti 0.283068 2.010470 10.353990
Ti 1.948427 0.629097 8.053104
Ti 0.283068 2.010470 14.955764
Ti 1.948427 0.629097 12.654877
Ti -0.318614 4.650038 5.752217
Ti 1.346746 3.268665 3.451330
Ti -0.318614 4.650038 10.353990
Ti 1.346746 3.268665 8.053104
Ti -0.318614 4.650038 14.955764
Ti 1.346746 3.268665 12.654877
Ti -0.920296 7.289605 5.752217
Ti 0.745064 5.908232 3.451330
Ti -0.920296 7.289605 10.353990
Ti 0.745064 5.908232 8.053104
Ti -0.920296 7.289605 14.955764
Ti 0.745064 5.908232 12.654877
Ti 3.116244 2.010470 10.353990
Ti 4.781604 0.629097 8.053104
Ti 3.116244 2.010470 14.955764
Ti 4.781604 0.629097 12.654877
Ti 3.116244 2.010470 19.557537
Ti 4.781604 0.629097 17.256650
Ti 2.514562 4.650038 10.353990
Ti 4.179922 3.268665 8.053104
Ti 2.514562 4.650038 14.955764
Ti 4.179922 3.268665 12.654877
Ti 2.514562 4.650038 19.557537
Ti 4.179922 3.268665 17.256650
Ti 1.912881 7.289605 10.353990
Ti 3.578241 5.908232 8.053104
Ti 1.912881 7.289605 14.955764
Ti 3.578241 5.908232 12.654877
Ti 1.912881 7.289605 19.557537
Ti 3.578241 5.908232 17.256650
Ti 5.949421 2.010470 14.955764
Ti 7.614781 0.629097 12.654877
Ti 5.949421 2.010470 19.557537
Ti 7.614781 0.629097 17.256650
Ti 5.949421 2.010470 24.159311
Ti 7.614781 0.629097 21.858424
Ti 5.347739 4.650038 14.955764
Ti 7.013099 3.268665 12.654877
Ti 5.347739 4.650038 19.557537
Ti 7.013099 3.268665 17.256650
Ti 5.347739 4.650038 24.159311
Ti 7.013099 3.268665 21.858424
Ti 4.746057 7.289605 14.955764
Ti 6.411417 5.908232 12.654877
Ti 4.746057 7.289605 19.557537
Ti 6.411417 5.908232 17.256650
Ti 4.746057 7.289605 24.159311
Ti 6.411417 5.908232 21.858424
