54
A
Ti 0.961099 2.052814 5.760652
Ti 2.079617 0.551180 3.456391
Ti 0.961099 2.052814 10.369174
Ti 2.079617 0.551180 8.064913
Ti 0.961099 2.052814 14.977696
Ti 2.079617 0.551180 12.673435
Ti 1.129814 4.656809 5.760652
Ti 2.248332 3.155175 3.456391
Ti 1.129814 4.656809 10.369174
Ti 2.248332 3.155175 8.064913
Ti 1.129814 4.656809 14.977696
Ti 2.248332 3.155175 12.673435
Ti 1.298529 7.260804 5.760652
Ti 2.417047 5.759170 3.456391
Ti 1.298529 7.260804 10.369174
Ti 2.417047 5.759170 8.064913
Ti 1.298529 7.260804 14.977696
Ti 2.417047 5.759170 12.673435
Ti 3.833099 2.052814 10.369174
Ti 4.951617 0.551180 8.064913
Ti 3.833099 2.052814 14.977696
Ti 4.951617 0.551180 12.673435
Ti 3.833099 2.052814 19.586218
Ti 4.951617 0.551180 17.281957
Ti 4.001814 4.656809 10.369174
Ti 5.120333 3.155175 8.064913
Ti 4.001814 4.656809 14.977696
Ti 5.120333 3.155175 12.673435
Ti 4.001814 4.656809 19.586218
Ti 5.120333 3.155175 17.281957
Ti 4.170530 7.260804 10.369174
Ti 5.289048 5.759170 8.064913
Ti 4.170530 7.260804 14.977696
Ti 5.289048 5.759170 12.673435
Ti 4.170530 7.260804 19.586218
Ti 5.289048 5.759170 17.281957
Ti 6.705099 2.052814 14.977696
Ti 7.823618 0.551180 12.673435
Ti 6.705099 2.052814 19.586218
Ti 7.823618 0.551180 17.281957
Ti 6.705099 2.052814 24.194739
Ti 7.823618 0.551180 21.890479
Ti 6.873815 4.656809 14.977696
Ti 7.992333 3.155175 12.673435
Ti 6.873815 4.656809 19.586218
Ti 7.992333 3.155175 17.281957
Ti 6.873815 4.656809 24.194739
Ti 7.992333 3.155175 21.890479
Ti 7.042530 7.260804 14.977696
Ti 8.161048 5.759170 12.673435
Ti 7.042530 7.260804 19.586218
Ti 8.161048 5.759170 17.281957
Ti 7.042530 7.260804 24.194739
Ti 8.161048 5.759170 21.890479
