54
A
Ti -0.495109 2.082078 3.460029
Ti -0.809339 0.496349 1.153343
Ti -0.495109 2.082078 8.073401
Ti -0.809339 0.496349 5.766715
Ti -0.495109 2.082078 12.686773
Ti -0.809339 0.496349 10.380087
Ti -4.699461 4.660504 3.460029
Ti -5.013691 3.074776 1.153343
Ti -4.699461 4.660504 8.073401
Ti -5.013691 3.074776 5.766715
Ti -4.699461 4.660504 12.686773
Ti -5.013691 3.074776 10.380087
Ti -8.903814 7.238931 3.460029
Ti -9.218044 5.653203 1.153343
Ti -8.903814 7.238931 8.073401
Ti -9.218044 5.653203 5.766715
Ti -8.903814 7.238931 12.686773
Ti -9.218044 5.653203 10.380087
Ti 2.404796 2.082078 3.460029
Ti 2.090566 0.496349 1.153343
Ti 2.404796 2.082078 8.073401
Ti 2.090566 0.496349 5.766715
Ti 2.404796 2.082078 12.686773
Ti 2.090566 0.496349 10.380087
Ti -1.799556 4.660504 3.460029
Ti -2.113786 3.074776 1.153343
Ti -1.799556 4.660504 8.073401
Ti -2.113786 3.074776 5.766715
Ti -1.799556 4.660504 12.686773
Ti -2.113786 3.074776 10.380087
Ti -6.003909 7.238931 3.460029
Ti -6.318139 5.653203 1.153343
Ti -6.003909 7.238931 8.073401
Ti -6.318139 5.653203 5.766715
Ti -6.003909 7.238931 12.686773
Ti -6.318139 5.653203 10.380087
Ti 5.304701 2.082078 3.460029
Ti 4.990471 0.496349 1.153343
Ti 5.304701 2.082078 8.073401
Ti 4.990471 0.496349 5.766715
Ti 5.304701 2.082078 12.686773
Ti 4.990471 0.496349 10.380087
Ti 1.100349 4.660504 3.460029
Ti 0.786119 3.074776 1.153343
Ti 1.100349 4.660504 8.073401
Ti 0.786119 3.074776 5.766715
Ti 1.100349 4.660504 12.686773
Ti 0.786119 3.074776 10.380087
Ti -3.104004 7.238931 3.460029
Ti -3.418234 5.653203 1.153343
Ti -3.104004 7.238931 8.073401
Ti -3.418234 5.653203 5.766715
Ti -3.104004 7.238931 12.686773
Ti -3.418234 5.653203 10.380087
