54
A
Ti -0.397876 2.065658 3.457973
Ti -0.837668 0.527220 1.152658
Ti -0.397876 2.065658 8.068604
Ti -0.837668 0.527220 5.763288
Ti -0.397876 2.065658 12.679234
Ti -0.837668 0.527220 10.373919
Ti -4.517553 4.658536 3.457973
Ti -4.957345 3.120099 1.152658
Ti -4.517553 4.658536 8.068604
Ti -4.957345 3.120099 5.763288
Ti -4.517553 4.658536 12.679234
Ti -4.957345 3.120099 10.373919
Ti -8.637230 7.251415 3.457973
Ti -9.077022 5.712977 1.152658
Ti -8.637230 7.251415 8.068604
Ti -9.077022 5.712977 5.763288
Ti -8.637230 7.251415 12.679234
Ti -9.077022 5.712977 10.373919
Ti 2.486257 2.065658 3.457973
Ti 2.046464 0.527220 1.152658
Ti 2.486257 2.065658 8.068604
Ti 2.046464 0.527220 5.763288
Ti 2.486257 2.065658 12.679234
Ti 2.046464 0.527220 10.373919
Ti -1.633420 4.658536 3.457973
Ti -2.073213 3.120099 1.152658
Ti -1.633420 4.658536 8.068604
Ti -2.073213 3.120099 5.763288
Ti -1.633420 4.658536 12.679234
Ti -2.073213 3.120099 10.373919
Ti -5.753097 7.251415 3.457973
Ti -6.192890 5.712977 1.152658
Ti -5.753097 7.251415 8.068604
Ti -6.192890 5.712977 5.763288
Ti -5.753097 7.251415 12.679234
Ti -6.192890 5.712977 10.373919
Ti 5.370390 2.065658 3.457973
Ti 4.930597 0.527220 1.152658
Ti 5.370390 2.065658 8.068604
Ti 4.930597 0.527220 5.763288
Ti 5.370390 2.065658 12.679234
Ti 4.930597 0.527220 10.373919
Ti 1.250712 4.658536 3.457973
Ti 0.810920 3.120099 1.152658
Ti 1.250712 4.658536 8.068604
Ti 0.810920 3.120099 5.763288
Ti 1.250712 4.658536 12.679234
Ti 0.810920 3.120099 10.373919
Ti -2.868965 7.251415 3.457973
Ti -3.308757 5.712977 1.152658
Ti -2.868965 7.251415 8.068604
Ti -3.308757 5.712977 5.763288
Ti -2.868965 7.251415 12.679234
Ti -3.308757 5.712977 10.373919
