54
A
Ti -0.187583 2.027901 3.453386
Ti -0.894254 0.597215 1.151129
Ti -0.187583 2.027901 8.057901
Ti -0.894254 0.597215 5.755644
Ti -0.187583 2.027901 12.662416
Ti -0.894254 0.597215 10.360159
Ti -4.118369 4.653017 3.453386
Ti -4.825040 3.222331 1.151129
Ti -4.118369 4.653017 8.057901
Ti -4.825040 3.222331 5.755644
Ti -4.118369 4.653017 12.662416
Ti -4.825040 3.222331 10.360159
Ti -8.049155 7.278134 3.453386
Ti -8.755826 5.847447 1.151129
Ti -8.049155 7.278134 8.057901
Ti -8.755826 5.847447 5.755644
Ti -8.049155 7.278134 12.662416
Ti -8.755826 5.847447 10.360159
Ti 2.661366 2.027901 3.453386
Ti 1.954695 0.597215 1.151129
Ti 2.661366 2.027901 8.057901
Ti 1.954695 0.597215 5.755644
Ti 2.661366 2.027901 12.662416
Ti 1.954695 0.597215 10.360159
Ti -1.269420 4.653017 3.453386
Ti -1.976091 3.222331 1.151129
Ti -1.269420 4.653017 8.057901
Ti -1.976091 3.222331 5.755644
Ti -1.269420 4.653017 12.662416
Ti -1.976091 3.222331 10.360159
Ti -5.200206 7.278134 3.453386
Ti -5.906877 5.847447 1.151129
Ti -5.200206 7.278134 8.057901
Ti -5.906877 5.847447 5.755644
Ti -5.200206 7.278134 12.662416
Ti -5.906877 5.847447 10.360159
Ti 5.510314 2.027901 3.453386
Ti 4.803644 0.597215 1.151129
Ti 5.510314 2.027901 8.057901
Ti 4.803644 0.597215 5.755644
Ti 5.510314 2.027901 12.662416
Ti 4.803644 0.597215 10.360159
Ti 1.579529 4.653017 3.453386
Ti 0.872858 3.222331 1.151129
Ti 1.579529 4.653017 8.057901
Ti 0.872858 3.222331 5.755644
Ti 1.579529 4.653017 12.662416
Ti 0.872858 3.222331 10.360159
Ti -2.351257 7.278134 3.453386
Ti -3.057928 5.847447 1.151129
Ti -2.351257 7.278134 8.057901
Ti -3.057928 5.847447 5.755644
Ti -2.351257 7.278134 12.662416
Ti -3.057928 5.847447 10.360159
