54
A
Ti 1.798872 2.099410 5.770406
Ti 2.177505 0.463454 3.462243
Ti 1.798872 2.099410 10.386730
Ti 2.177505 0.463454 8.078568
Ti 1.798872 2.099410 15.003055
Ti 2.177505 0.463454 12.694893
Ti 2.858359 4.662274 5.770406
Ti 3.236992 3.026318 3.462243
Ti 2.858359 4.662274 10.386730
Ti 3.236992 3.026318 8.078568
Ti 2.858359 4.662274 15.003055
Ti 3.236992 3.026318 12.694893
Ti 3.917846 7.225138 5.770406
Ti 4.296479 5.589182 3.462243
Ti 3.917846 7.225138 10.386730
Ti 4.296479 5.589182 8.078568
Ti 3.917846 7.225138 15.003055
Ti 4.296479 5.589182 12.694893
Ti 4.715762 2.099410 10.386730
Ti 5.094395 0.463454 8.078568
Ti 4.715762 2.099410 15.003055
Ti 5.094395 0.463454 12.694893
Ti 4.715762 2.099410 19.619379
Ti 5.094395 0.463454 17.311217
Ti 5.775249 4.662274 10.386730
Ti 6.153882 3.026318 8.078568
Ti 5.775249 4.662274 15.003055
Ti 6.153882 3.026318 12.694893
Ti 5.775249 4.662274 19.619379
Ti 6.153882 3.026318 17.311217
Ti 6.834736 7.225138 10.386730
Ti 7.213369 5.589182 8.078568
Ti 6.834736 7.225138 15.003055
Ti 7.213369 5.589182 12.694893
Ti 6.834736 7.225138 19.619379
Ti 7.213369 5.589182 17.311217
Ti 7.632653 2.099410 15.003055
Ti 8.011286 0.463454 12.694893
Ti 7.632653 2.099410 19.619379
Ti 8.011286 0.463454 17.311217
Ti 7.632653 2.099410 24.235704
Ti 8.011286 0.463454 21.927542
Ti 8.692139 4.662274 15.003055
Ti 9.070772 3.026318 12.694893
Ti 8.692139 4.662274 19.619379
Ti 9.070772 3.026318 17.311217
Ti 8.692139 4.662274 24.235704
Ti 9.070772 3.026318 21.927542
Ti 9.751626 7.225138 15.003055
Ti 10.130259 5.589182 12.694893
Ti 9.751626 7.225138 19.619379
Ti 10.130259 5.589182 17.311217
Ti 9.751626 7.225138 24.235704
Ti 10.130259 5.589182 21.927542
