54
A
Ti -0.034141 1.998219 3.449907
Ti -0.931091 0.651353 1.149969
Ti -0.034141 1.998219 8.049782
Ti -0.931091 0.651353 5.749844
Ti -0.034141 1.998219 12.649658
Ti -0.931091 0.651353 10.349720
Ti -3.821630 4.647791 3.449907
Ti -4.718580 3.300926 1.149969
Ti -3.821630 4.647791 8.049782
Ti -4.718580 3.300926 5.749844
Ti -3.821630 4.647791 12.649658
Ti -4.718580 3.300926 10.349720
Ti -7.609119 7.297364 3.449907
Ti -8.506069 5.950498 1.149969
Ti -7.609119 7.297364 8.049782
Ti -8.506069 5.950498 5.749844
Ti -7.609119 7.297364 12.649658
Ti -8.506069 5.950498 10.349720
Ti 2.788117 1.998219 3.449907
Ti 1.891166 0.651353 1.149969
Ti 2.788117 1.998219 8.049782
Ti 1.891166 0.651353 5.749844
Ti 2.788117 1.998219 12.649658
Ti 1.891166 0.651353 10.349720
Ti -0.999372 4.647791 3.449907
Ti -1.896323 3.300926 1.149969
Ti -0.999372 4.647791 8.049782
Ti -1.896323 3.300926 5.749844
Ti -0.999372 4.647791 12.649658
Ti -1.896323 3.300926 10.349720
Ti -4.786861 7.297364 3.449907
Ti -5.683812 5.950498 1.149969
Ti -4.786861 7.297364 8.049782
Ti -5.683812 5.950498 5.749844
Ti -4.786861 7.297364 12.649658
Ti -5.683812 5.950498 10.349720
Ti 5.610374 1.998219 3.449907
Ti 4.713424 0.651353 1.149969
Ti 5.610374 1.998219 8.049782
Ti 4.713424 0.651353 5.749844
Ti 5.610374 1.998219 12.649658
Ti 4.713424 0.651353 10.349720
Ti 1.822885 4.647791 3.449907
Ti 0.925935 3.300926 1.149969
Ti 1.822885 4.647791 8.049782
Ti 0.925935 3.300926 5.749844
Ti 1.822885 4.647791 12.649658
Ti 0.925935 3.300926 10.349720
Ti -1.964604 7.297364 3.449907
Ti -2.861554 5.950498 1.149969
Ti -1.964604 7.297364 8.049782
Ti -2.861554 5.950498 5.749844
Ti -1.964604 7.297364 12.649658
Ti -2.861554 5.950498 10.349720
