54
A
Ti 0.059962 1.995476 5.749317
Ti 1.893363 0.656320 3.449590
Ti 0.059962 1.995476 10.348771
Ti 1.893363 0.656320 8.049044
Ti 0.059962 1.995476 14.948225
Ti 1.893363 0.656320 12.648498
Ti -0.806544 4.647272 5.749317
Ti 1.026858 3.308115 3.449590
Ti -0.806544 4.647272 10.348771
Ti 1.026858 3.308115 8.049044
Ti -0.806544 4.647272 14.948225
Ti 1.026858 3.308115 12.648498
Ti -1.673049 7.299067 5.749317
Ti 0.160352 5.959911 3.449590
Ti -1.673049 7.299067 10.348771
Ti 0.160352 5.959911 8.049044
Ti -1.673049 7.299067 14.948225
Ti 0.160352 5.959911 12.648498
Ti 2.879793 1.995476 10.348771
Ti 4.713194 0.656320 8.049044
Ti 2.879793 1.995476 14.948225
Ti 4.713194 0.656320 12.648498
Ti 2.879793 1.995476 19.547678
Ti 4.713194 0.656320 17.247951
Ti 2.013287 4.647272 10.348771
Ti 3.846689 3.308115 8.049044
Ti 2.013287 4.647272 14.948225
Ti 3.846689 3.308115 12.648498
Ti 2.013287 4.647272 19.547678
Ti 3.846689 3.308115 17.247951
Ti 1.146781 7.299067 10.348771
Ti 2.980183 5.959911 8.049044
Ti 1.146781 7.299067 14.948225
Ti 2.980183 5.959911 12.648498
Ti 1.146781 7.299067 19.547678
Ti 2.980183 5.959911 17.247951
Ti 5.699624 1.995476 14.948225
Ti 7.533025 0.656320 12.648498
Ti 5.699624 1.995476 19.547678
Ti 7.533025 0.656320 17.247951
Ti 5.699624 1.995476 24.147132
Ti 7.533025 0.656320 21.847405
Ti 4.833118 4.647272 14.948225
Ti 6.666520 3.308115 12.648498
Ti 4.833118 4.647272 19.547678
Ti 6.666520 3.308115 17.247951
Ti 4.833118 4.647272 24.147132
Ti 6.666520 3.308115 21.847405
Ti 3.966612 7.299067 14.948225
Ti 5.800014 5.959911 12.648498
Ti 3.966612 7.299067 19.547678
Ti 5.800014 5.959911 17.247951
Ti 3.966612 7.299067 24.147132
Ti 5.800014 5.959911 21.847405
