54
A
Ti 1.048887 2.057974 5.761707
Ti 2.092981 0.541574 3.457024
Ti 1.048887 2.057974 10.371072
Ti 2.092981 0.541574 8.066389
Ti 1.048887 2.057974 14.980437
Ti 2.092981 0.541574 12.675755
Ti 1.313902 4.657522 5.761707
Ti 2.357996 3.141122 3.457024
Ti 1.313902 4.657522 10.371072
Ti 2.357996 3.141122 8.066389
Ti 1.313902 4.657522 14.980437
Ti 2.357996 3.141122 12.675755
Ti 1.578917 7.257071 5.761707
Ti 2.623011 5.740671 3.457024
Ti 1.578917 7.257071 10.371072
Ti 2.623011 5.740671 8.066389
Ti 1.578917 7.257071 14.980437
Ti 2.623011 5.740671 12.675755
Ti 3.925740 2.057974 10.371072
Ti 4.969834 0.541574 8.066389
Ti 3.925740 2.057974 14.980437
Ti 4.969834 0.541574 12.675755
Ti 3.925740 2.057974 19.589803
Ti 4.969834 0.541574 17.285120
Ti 4.190755 4.657522 10.371072
Ti 5.234849 3.141122 8.066389
Ti 4.190755 4.657522 14.980437
Ti 5.234849 3.141122 12.675755
Ti 4.190755 4.657522 19.589803
Ti 5.234849 3.141122 17.285120
Ti 4.455770 7.257071 10.371072
Ti 5.499864 5.740671 8.066389
Ti 4.455770 7.257071 14.980437
Ti 5.499864 5.740671 12.675755
Ti 4.455770 7.257071 19.589803
Ti 5.499864 5.740671 17.285120
Ti 6.802594 2.057974 14.980437
Ti 7.846688 0.541574 12.675755
Ti 6.802594 2.057974 19.589803
Ti 7.846688 0.541574 17.285120
Ti 6.802594 2.057974 24.199168
Ti 7.846688 0.541574 21.894485
Ti 7.067609 4.657522 14.980437
Ti 8.111703 3.141122 12.675755
Ti 7.067609 4.657522 19.589803
Ti 8.111703 3.141122 17.285120
Ti 7.067609 4.657522 24.199168
Ti 8.111703 3.141122 21.894485
Ti 7.332623 7.257071 14.980437
Ti 8.376718 5.740671 12.675755
Ti 7.332623 7.257071 19.589803
Ti 8.376718 5.740671 17.285120
Ti 7.332623 7.257071 24.199168
Ti 8.376718 5.740671 21.894485
