54
A
Ti 2.179022 2.118774 5.774623
Ti 2.201965 0.426304 3.464774
Ti 2.179022 2.118774 10.394322
Ti 2.201965 0.426304 8.084473
Ti 2.179022 2.118774 15.014021
Ti 2.201965 0.426304 12.704171
Ti 3.623708 4.663851 5.774623
Ti 3.646650 2.971381 3.464774
Ti 3.623708 4.663851 10.394322
Ti 3.646650 2.971381 8.084473
Ti 3.623708 4.663851 15.014021
Ti 3.646650 2.971381 12.704171
Ti 5.068393 7.208929 5.774623
Ti 5.091336 5.516459 3.464774
Ti 5.068393 7.208929 10.394322
Ti 5.091336 5.516459 8.084473
Ti 5.068393 7.208929 15.014021
Ti 5.091336 5.516459 12.704171
Ti 5.115325 2.118774 10.394322
Ti 5.138267 0.426304 8.084473
Ti 5.115325 2.118774 15.014021
Ti 5.138267 0.426304 12.704171
Ti 5.115325 2.118774 19.633720
Ti 5.138267 0.426304 17.323870
Ti 6.560010 4.663851 10.394322
Ti 6.582952 2.971381 8.084473
Ti 6.560010 4.663851 15.014021
Ti 6.582952 2.971381 12.704171
Ti 6.560010 4.663851 19.633720
Ti 6.582952 2.971381 17.323870
Ti 8.004695 7.208929 10.394322
Ti 8.027638 5.516459 8.084473
Ti 8.004695 7.208929 15.014021
Ti 8.027638 5.516459 12.704171
Ti 8.004695 7.208929 19.633720
Ti 8.027638 5.516459 17.323870
Ti 8.051627 2.118774 15.014021
Ti 8.074569 0.426304 12.704171
Ti 8.051627 2.118774 19.633720
Ti 8.074569 0.426304 17.323870
Ti 8.051627 2.118774 24.253418
Ti 8.074569 0.426304 21.943569
Ti 9.496312 4.663851 15.014021
Ti 9.519255 2.971381 12.704171
Ti 9.496312 4.663851 19.633720
Ti 9.519255 2.971381 17.323870
Ti 9.496312 4.663851 24.253418
Ti 9.519255 2.971381 21.943569
Ti 10.940997 7.208929 15.014021
Ti 10.963940 5.516459 12.704171
Ti 10.940997 7.208929 19.633720
Ti 10.963940 5.516459 17.323870
Ti 10.940997 7.208929 24.253418
Ti 10.963940 5.516459 21.943569
