54
A
Ti -0.216046 2.033202 3.454019
Ti -0.886992 0.587468 1.151340
Ti -0.216046 2.033202 8.059377
Ti -0.886992 0.587468 5.756698
Ti -0.216046 2.033202 12.664736
Ti -0.886992 0.587468 10.362057
Ti -4.172886 4.653871 3.454019
Ti -4.843832 3.208137 1.151340
Ti -4.172886 4.653871 8.059377
Ti -4.843832 3.208137 5.756698
Ti -4.172886 4.653871 12.664736
Ti -4.843832 3.208137 10.362057
Ti -8.129726 7.274541 3.454019
Ti -8.800672 5.828807 1.151340
Ti -8.129726 7.274541 8.059377
Ti -8.800672 5.828807 5.756698
Ti -8.129726 7.274541 12.664736
Ti -8.800672 5.828807 10.362057
Ti 2.637756 2.033202 3.454019
Ti 1.966810 0.587468 1.151340
Ti 2.637756 2.033202 8.059377
Ti 1.966810 0.587468 5.756698
Ti 2.637756 2.033202 12.664736
Ti 1.966810 0.587468 10.362057
Ti -1.319084 4.653871 3.454019
Ti -1.990030 3.208137 1.151340
Ti -1.319084 4.653871 8.059377
Ti -1.990030 3.208137 5.756698
Ti -1.319084 4.653871 12.664736
Ti -1.990030 3.208137 10.362057
Ti -5.275924 7.274541 3.454019
Ti -5.946870 5.828807 1.151340
Ti -5.275924 7.274541 8.059377
Ti -5.946870 5.828807 5.756698
Ti -5.275924 7.274541 12.664736
Ti -5.946870 5.828807 10.362057
Ti 5.491557 2.033202 3.454019
Ti 4.820612 0.587468 1.151340
Ti 5.491557 2.033202 8.059377
Ti 4.820612 0.587468 5.756698
Ti 5.491557 2.033202 12.664736
Ti 4.820612 0.587468 10.362057
Ti 1.534717 4.653871 3.454019
Ti 0.863772 3.208137 1.151340
Ti 1.534717 4.653871 8.059377
Ti 0.863772 3.208137 5.756698
Ti 1.534717 4.653871 12.664736
Ti 0.863772 3.208137 10.362057
Ti -2.422122 7.274541 3.454019
Ti -3.093068 5.828807 1.151340
Ti -2.422122 7.274541 8.059377
Ti -3.093068 5.828807 5.756698
Ti -2.422122 7.274541 12.664736
Ti -3.093068 5.828807 10.362057
