54
A
Ti -0.152248 2.021234 3.452595
Ti -0.903087 0.609440 1.150865
Ti -0.152248 2.021234 8.056056
Ti -0.903087 0.609440 5.754326
Ti -0.152248 2.021234 12.659517
Ti -0.903087 0.609440 10.357786
Ti -4.050467 4.651908 3.452595
Ti -4.801306 3.240115 1.150865
Ti -4.050467 4.651908 8.056056
Ti -4.801306 3.240115 5.754326
Ti -4.050467 4.651908 12.659517
Ti -4.801306 3.240115 10.357786
Ti -7.948685 7.282583 3.452595
Ti -8.699524 5.870789 1.150865
Ti -7.948685 7.282583 8.056056
Ti -8.699524 5.870789 5.754326
Ti -7.948685 7.282583 12.659517
Ti -8.699524 5.870789 10.357786
Ti 2.690634 2.021234 3.452595
Ti 1.939795 0.609440 1.150865
Ti 2.690634 2.021234 8.056056
Ti 1.939795 0.609440 5.754326
Ti 2.690634 2.021234 12.659517
Ti 1.939795 0.609440 10.357786
Ti -1.207584 4.651908 3.452595
Ti -1.958423 3.240115 1.150865
Ti -1.207584 4.651908 8.056056
Ti -1.958423 3.240115 5.754326
Ti -1.207584 4.651908 12.659517
Ti -1.958423 3.240115 10.357786
Ti -5.105803 7.282583 3.452595
Ti -5.856642 5.870789 1.150865
Ti -5.105803 7.282583 8.056056
Ti -5.856642 5.870789 5.754326
Ti -5.105803 7.282583 12.659517
Ti -5.856642 5.870789 10.357786
Ti 5.533517 2.021234 3.452595
Ti 4.782678 0.609440 1.150865
Ti 5.533517 2.021234 8.056056
Ti 4.782678 0.609440 5.754326
Ti 5.533517 2.021234 12.659517
Ti 4.782678 0.609440 10.357786
Ti 1.635298 4.651908 3.452595
Ti 0.884459 3.240115 1.150865
Ti 1.635298 4.651908 8.056056
Ti 0.884459 3.240115 5.754326
Ti 1.635298 4.651908 12.659517
Ti 0.884459 3.240115 10.357786
Ti -2.262920 7.282583 3.452595
Ti -3.013759 5.870789 1.150865
Ti -2.262920 7.282583 8.056056
Ti -3.013759 5.870789 5.754326
Ti -2.262920 7.282583 12.659517
Ti -3.013759 5.870789 10.357786
