54
A
Ti 1.659097 2.092026 5.768824
Ti 2.165551 0.477507 3.461294
Ti 1.659097 2.092026 10.383883
Ti 2.165551 0.477507 8.076354
Ti 1.659097 2.092026 14.998943
Ti 2.165551 0.477507 12.691413
Ti 2.574135 4.661560 5.768824
Ti 3.080588 3.047041 3.461294
Ti 2.574135 4.661560 10.383883
Ti 3.080588 3.047041 8.076354
Ti 2.574135 4.661560 14.998943
Ti 3.080588 3.047041 12.691413
Ti 3.489172 7.231094 5.768824
Ti 3.995626 5.616575 3.461294
Ti 3.489172 7.231094 10.383883
Ti 3.995626 5.616575 8.076354
Ti 3.489172 7.231094 14.998943
Ti 3.995626 5.616575 12.691413
Ti 4.568708 2.092026 10.383883
Ti 5.075162 0.477507 8.076354
Ti 4.568708 2.092026 14.998943
Ti 5.075162 0.477507 12.691413
Ti 4.568708 2.092026 19.614002
Ti 5.075162 0.477507 17.306472
Ti 5.483745 4.661560 10.383883
Ti 5.990199 3.047041 8.076354
Ti 5.483745 4.661560 14.998943
Ti 5.990199 3.047041 12.691413
Ti 5.483745 4.661560 19.614002
Ti 5.990199 3.047041 17.306472
Ti 6.398783 7.231094 10.383883
Ti 6.905236 5.616575 8.076354
Ti 6.398783 7.231094 14.998943
Ti 6.905236 5.616575 12.691413
Ti 6.398783 7.231094 19.614002
Ti 6.905236 5.616575 17.306472
Ti 7.478319 2.092026 14.998943
Ti 7.984773 0.477507 12.691413
Ti 7.478319 2.092026 19.614002
Ti 7.984773 0.477507 17.306472
Ti 7.478319 2.092026 24.229061
Ti 7.984773 0.477507 21.921531
Ti 8.393356 4.661560 14.998943
Ti 8.899810 3.047041 12.691413
Ti 8.393356 4.661560 19.614002
Ti 8.899810 3.047041 17.306472
Ti 8.393356 4.661560 24.229061
Ti 8.899810 3.047041 21.921531
Ti 9.308394 7.231094 14.998943
Ti 9.814847 5.616575 12.691413
Ti 9.308394 7.231094 19.614002
Ti 9.814847 5.616575 17.306472
Ti 9.308394 7.231094 24.229061
Ti 9.814847 5.616575 21.921531
