54
A
Ti 1.137350 2.063104 5.762761
Ti 2.105671 0.531998 3.457657
Ti 1.137350 2.063104 10.372970
Ti 2.105671 0.531998 8.067866
Ti 1.137350 2.063104 14.983179
Ti 2.105671 0.531998 12.678074
Ti 1.498664 4.658206 5.762761
Ti 2.466985 3.127099 3.457657
Ti 1.498664 4.658206 10.372970
Ti 2.466985 3.127099 8.067866
Ti 1.498664 4.658206 14.983179
Ti 2.466985 3.127099 12.678074
Ti 1.859979 7.253307 5.762761
Ti 2.828300 5.722201 3.457657
Ti 1.859979 7.253307 10.372970
Ti 2.828300 5.722201 8.067866
Ti 1.859979 7.253307 14.983179
Ti 2.828300 5.722201 12.678074
Ti 4.019056 2.063104 10.372970
Ti 4.987377 0.531998 8.067866
Ti 4.019056 2.063104 14.983179
Ti 4.987377 0.531998 12.678074
Ti 4.019056 2.063104 19.593388
Ti 4.987377 0.531998 17.288283
Ti 4.380371 4.658206 10.372970
Ti 5.348692 3.127099 8.067866
Ti 4.380371 4.658206 14.983179
Ti 5.348692 3.127099 12.678074
Ti 4.380371 4.658206 19.593388
Ti 5.348692 3.127099 17.288283
Ti 4.741685 7.253307 10.372970
Ti 5.710006 5.722201 8.067866
Ti 4.741685 7.253307 14.983179
Ti 5.710006 5.722201 12.678074
Ti 4.741685 7.253307 19.593388
Ti 5.710006 5.722201 17.288283
Ti 6.900762 2.063104 14.983179
Ti 7.869084 0.531998 12.678074
Ti 6.900762 2.063104 19.593388
Ti 7.869084 0.531998 17.288283
Ti 6.900762 2.063104 24.203597
Ti 7.869084 0.531998 21.898492
Ti 7.262077 4.658206 14.983179
Ti 8.230398 3.127099 12.678074
Ti 7.262077 4.658206 19.593388
Ti 8.230398 3.127099 17.288283
Ti 7.262077 4.658206 24.203597
Ti 8.230398 3.127099 21.898492
Ti 7.623391 7.253307 14.983179
Ti 8.591713 5.722201 12.678074
Ti 7.623391 7.253307 19.593388
Ti 8.591713 5.722201 17.288283
Ti 7.623391 7.253307 24.203597
Ti 8.591713 5.722201 21.898492
