54
A
Ti 0.809092 2.043714 5.758807
Ti 2.054607 0.568063 3.455284
Ti 0.809092 2.043714 10.365853
Ti 2.054607 0.568063 8.062330
Ti 0.809092 2.043714 14.972898
Ti 2.054607 0.568063 12.669375
Ti 0.809282 4.655490 5.758807
Ti 2.054798 3.179839 3.455284
Ti 0.809282 4.655490 10.365853
Ti 2.054798 3.179839 8.062330
Ti 0.809282 4.655490 14.972898
Ti 2.054798 3.179839 12.669375
Ti 0.809473 7.267266 5.758807
Ti 2.054989 5.791615 3.455284
Ti 0.809473 7.267266 10.365853
Ti 2.054989 5.791615 8.062330
Ti 0.809473 7.267266 14.972898
Ti 2.054989 5.791615 12.669375
Ti 3.672599 2.043714 10.365853
Ti 4.918115 0.568063 8.062330
Ti 3.672599 2.043714 14.972898
Ti 4.918115 0.568063 12.669375
Ti 3.672599 2.043714 19.579944
Ti 4.918115 0.568063 17.276421
Ti 3.672790 4.655490 10.365853
Ti 4.918306 3.179839 8.062330
Ti 3.672790 4.655490 14.972898
Ti 4.918306 3.179839 12.669375
Ti 3.672790 4.655490 19.579944
Ti 4.918306 3.179839 17.276421
Ti 3.672981 7.267266 10.365853
Ti 4.918497 5.791615 8.062330
Ti 3.672981 7.267266 14.972898
Ti 4.918497 5.791615 12.669375
Ti 3.672981 7.267266 19.579944
Ti 4.918497 5.791615 17.276421
Ti 6.536107 2.043714 14.972898
Ti 7.781622 0.568063 12.669375
Ti 6.536107 2.043714 19.579944
Ti 7.781622 0.568063 17.276421
Ti 6.536107 2.043714 24.186989
Ti 7.781622 0.568063 21.883467
Ti 6.536298 4.655490 14.972898
Ti 7.781813 3.179839 12.669375
Ti 6.536298 4.655490 19.579944
Ti 7.781813 3.179839 17.276421
Ti 6.536298 4.655490 24.186989
Ti 7.781813 3.179839 21.883467
Ti 6.536489 7.267266 14.972898
Ti 7.782004 5.791615 12.669375
Ti 6.536489 7.267266 19.579944
Ti 7.782004 5.791615 17.276421
Ti 6.536489 7.267266 24.186989
Ti 7.782004 5.791615 21.883467
