54
A
Ti -0.502664 2.083328 3.460187
Ti -0.807083 0.493988 1.153396
Ti -0.502664 2.083328 8.073770
Ti -0.807083 0.493988 5.766979
Ti -0.502664 2.083328 12.687353
Ti -0.807083 0.493988 10.380562
Ti -4.713530 4.660643 3.460187
Ti -5.017949 3.071303 1.153396
Ti -4.713530 4.660643 8.073770
Ti -5.017949 3.071303 5.766979
Ti -4.713530 4.660643 12.687353
Ti -5.017949 3.071303 10.380562
Ti -8.924396 7.237958 3.460187
Ti -9.228815 5.648618 1.153396
Ti -8.924396 7.237958 8.073770
Ti -9.228815 5.648618 5.766979
Ti -8.924396 7.237958 12.687353
Ti -9.228815 5.648618 10.380562
Ti 2.398454 2.083328 3.460187
Ti 2.094035 0.493988 1.153396
Ti 2.398454 2.083328 8.073770
Ti 2.094035 0.493988 5.766979
Ti 2.398454 2.083328 12.687353
Ti 2.094035 0.493988 10.380562
Ti -1.812412 4.660643 3.460187
Ti -2.116831 3.071303 1.153396
Ti -1.812412 4.660643 8.073770
Ti -2.116831 3.071303 5.766979
Ti -1.812412 4.660643 12.687353
Ti -2.116831 3.071303 10.380562
Ti -6.023278 7.237958 3.460187
Ti -6.327697 5.648618 1.153396
Ti -6.023278 7.237958 8.073770
Ti -6.327697 5.648618 5.766979
Ti -6.023278 7.237958 12.687353
Ti -6.327697 5.648618 10.380562
Ti 5.299572 2.083328 3.460187
Ti 4.995153 0.493988 1.153396
Ti 5.299572 2.083328 8.073770
Ti 4.995153 0.493988 5.766979
Ti 5.299572 2.083328 12.687353
Ti 4.995153 0.493988 10.380562
Ti 1.088706 4.660643 3.460187
Ti 0.784287 3.071303 1.153396
Ti 1.088706 4.660643 8.073770
Ti 0.784287 3.071303 5.766979
Ti 1.088706 4.660643 12.687353
Ti 0.784287 3.071303 10.380562
Ti -3.122160 7.237958 3.460187
Ti -3.426579 5.648618 1.153396
Ti -3.122160 7.237958 8.073770
Ti -3.426579 5.648618 5.766979
Ti -3.122160 7.237958 12.687353
Ti -3.426579 5.648618 10.380562
