54
A
Ti -0.487564 2.080826 3.459871
Ti -0.811583 0.498713 1.153290
Ti -0.487564 2.080826 8.073032
Ti -0.811583 0.498713 5.766452
Ti -0.487564 2.080826 12.686193
Ti -0.811583 0.498713 10.379613
Ti -4.685403 4.660364 3.459871
Ti -5.009422 3.078252 1.153290
Ti -4.685403 4.660364 8.073032
Ti -5.009422 3.078252 5.766452
Ti -4.685403 4.660364 12.686193
Ti -5.009422 3.078252 10.379613
Ti -8.883242 7.239903 3.459871
Ti -9.207261 5.657790 1.153290
Ti -8.883242 7.239903 8.073032
Ti -9.207261 5.657790 5.766452
Ti -8.883242 7.239903 12.686193
Ti -9.207261 5.657790 10.379613
Ti 2.411127 2.080826 3.459871
Ti 2.087109 0.498713 1.153290
Ti 2.411127 2.080826 8.073032
Ti 2.087109 0.498713 5.766452
Ti 2.411127 2.080826 12.686193
Ti 2.087109 0.498713 10.379613
Ti -1.786712 4.660364 3.459871
Ti -2.110730 3.078252 1.153290
Ti -1.786712 4.660364 8.073032
Ti -2.110730 3.078252 5.766452
Ti -1.786712 4.660364 12.686193
Ti -2.110730 3.078252 10.379613
Ti -5.984550 7.239903 3.459871
Ti -6.308569 5.657790 1.153290
Ti -5.984550 7.239903 8.073032
Ti -6.308569 5.657790 5.766452
Ti -5.984550 7.239903 12.686193
Ti -6.308569 5.657790 10.379613
Ti 5.309819 2.080826 3.459871
Ti 4.985800 0.498713 1.153290
Ti 5.309819 2.080826 8.073032
Ti 4.985800 0.498713 5.766452
Ti 5.309819 2.080826 12.686193
Ti 4.985800 0.498713 10.379613
Ti 1.111980 4.660364 3.459871
Ti 0.787961 3.078252 1.153290
Ti 1.111980 4.660364 8.073032
Ti 0.787961 3.078252 5.766452
Ti 1.111980 4.660364 12.686193
Ti 0.787961 3.078252 10.379613
Ti -3.085859 7.239903 3.459871
Ti -3.409878 5.657790 1.153290
Ti -3.085859 7.239903 8.073032
Ti -3.409878 5.657790 5.766452
Ti -3.085859 7.239903 12.686193
Ti -3.409878 5.657790 10.379613
