54
A
Ti 0.324180 2.013172 5.752744
Ti 1.957891 0.624172 3.451646
Ti 0.324180 2.013172 10.354939
Ti 1.957891 0.624172 8.053842
Ti 0.324180 2.013172 14.957135
Ti 1.957891 0.624172 12.656037
Ti -0.229352 4.650516 5.752744
Ti 1.404359 3.261516 3.451646
Ti -0.229352 4.650516 10.354939
Ti 1.404359 3.261516 8.053842
Ti -0.229352 4.650516 14.957135
Ti 1.404359 3.261516 12.656037
Ti -0.782884 7.287861 5.752744
Ti 0.850827 5.898860 3.451646
Ti -0.782884 7.287861 10.354939
Ti 0.850827 5.898860 8.053842
Ti -0.782884 7.287861 14.957135
Ti 0.850827 5.898860 12.656037
Ti 3.159783 2.013172 10.354939
Ti 4.793494 0.624172 8.053842
Ti 3.159783 2.013172 14.957135
Ti 4.793494 0.624172 12.656037
Ti 3.159783 2.013172 19.559330
Ti 4.793494 0.624172 17.258232
Ti 2.606251 4.650516 10.354939
Ti 4.239962 3.261516 8.053842
Ti 2.606251 4.650516 14.957135
Ti 4.239962 3.261516 12.656037
Ti 2.606251 4.650516 19.559330
Ti 4.239962 3.261516 17.258232
Ti 2.052719 7.287861 10.354939
Ti 3.686430 5.898860 8.053842
Ti 2.052719 7.287861 14.957135
Ti 3.686430 5.898860 12.656037
Ti 2.052719 7.287861 19.559330
Ti 3.686430 5.898860 17.258232
Ti 5.995386 2.013172 14.957135
Ti 7.629097 0.624172 12.656037
Ti 5.995386 2.013172 19.559330
Ti 7.629097 0.624172 17.258232
Ti 5.995386 2.013172 24.161525
Ti 7.629097 0.624172 21.860427
Ti 5.441854 4.650516 14.957135
Ti 7.075565 3.261516 12.656037
Ti 5.441854 4.650516 19.559330
Ti 7.075565 3.261516 17.258232
Ti 5.441854 4.650516 24.161525
Ti 7.075565 3.261516 21.860427
Ti 4.888322 7.287861 14.957135
Ti 6.522034 5.898860 12.656037
Ti 4.888322 7.287861 19.559330
Ti 6.522034 5.898860 17.258232
Ti 4.888322 7.287861 24.161525
Ti 6.522034 5.898860 21.860427
