54
A
Ti -0.632768 2.104295 3.462876
Ti -0.767084 0.454122 1.154292
Ti -0.632768 2.104295 8.080044
Ti -0.767084 0.454122 5.771460
Ti -0.632768 2.104295 12.697212
Ti -0.767084 0.454122 10.388628
Ti -4.954363 4.662713 3.462876
Ti -5.088680 3.012539 1.154292
Ti -4.954363 4.662713 8.080044
Ti -5.088680 3.012539 5.771460
Ti -4.954363 4.662713 12.697212
Ti -5.088680 3.012539 10.388628
Ti -9.275958 7.221130 3.462876
Ti -9.410275 5.570956 1.154292
Ti -9.275958 7.221130 8.080044
Ti -9.410275 5.570956 5.771460
Ti -9.275958 7.221130 12.697212
Ti -9.410275 5.570956 10.388628
Ti 2.288976 2.104295 3.462876
Ti 2.154659 0.454122 1.154292
Ti 2.288976 2.104295 8.080044
Ti 2.154659 0.454122 5.771460
Ti 2.288976 2.104295 12.697212
Ti 2.154659 0.454122 10.388628
Ti -2.032620 4.662713 3.462876
Ti -2.166936 3.012539 1.154292
Ti -2.032620 4.662713 8.080044
Ti -2.166936 3.012539 5.771460
Ti -2.032620 4.662713 12.697212
Ti -2.166936 3.012539 10.388628
Ti -6.354215 7.221130 3.462876
Ti -6.488532 5.570956 1.154292
Ti -6.354215 7.221130 8.080044
Ti -6.488532 5.570956 5.771460
Ti -6.354215 7.221130 12.697212
Ti -6.488532 5.570956 10.388628
Ti 5.210719 2.104295 3.462876
Ti 5.076402 0.454122 1.154292
Ti 5.210719 2.104295 8.080044
Ti 5.076402 0.454122 5.771460
Ti 5.210719 2.104295 12.697212
Ti 5.076402 0.454122 10.388628
Ti 0.889124 4.662713 3.462876
Ti 0.754807 3.012539 1.154292
Ti 0.889124 4.662713 8.080044
Ti 0.754807 3.012539 5.771460
Ti 0.889124 4.662713 12.697212
Ti 0.754807 3.012539 10.388628
Ti -3.432472 7.221130 3.462876
Ti -3.566788 5.570956 1.154292
Ti -3.432472 7.221130 8.080044
Ti -3.566788 5.570956 5.771460
Ti -3.432472 7.221130 12.697212
Ti -3.566788 5.570956 10.388628
