54
A
Ti 0.201348 2.005044 5.751162
Ti 1.928994 0.638970 3.450697
Ti 0.201348 2.005044 10.352092
Ti 1.928994 0.638970 8.051627
Ti 0.201348 2.005044 14.953022
Ti 1.928994 0.638970 12.652557
Ti -0.496633 4.649058 5.751162
Ti 1.231013 3.282985 3.450697
Ti -0.496633 4.649058 10.352092
Ti 1.231013 3.282985 8.051627
Ti -0.496633 4.649058 14.953022
Ti 1.231013 3.282985 12.652557
Ti -1.194615 7.293072 5.751162
Ti 0.533031 5.926999 3.450697
Ti -1.194615 7.293072 10.352092
Ti 0.533031 5.926999 8.051627
Ti -1.194615 7.293072 14.953022
Ti 0.533031 5.926999 12.652557
Ti 3.029672 2.005044 10.352092
Ti 4.757318 0.638970 8.051627
Ti 3.029672 2.005044 14.953022
Ti 4.757318 0.638970 12.652557
Ti 3.029672 2.005044 19.553952
Ti 4.757318 0.638970 17.253487
Ti 2.331690 4.649058 10.352092
Ti 4.059336 3.282985 8.051627
Ti 2.331690 4.649058 14.953022
Ti 4.059336 3.282985 12.652557
Ti 2.331690 4.649058 19.553952
Ti 4.059336 3.282985 17.253487
Ti 1.633709 7.293072 10.352092
Ti 3.361355 5.926999 8.051627
Ti 1.633709 7.293072 14.953022
Ti 3.361355 5.926999 12.652557
Ti 1.633709 7.293072 19.553952
Ti 3.361355 5.926999 17.253487
Ti 5.857995 2.005044 14.953022
Ti 7.585642 0.638970 12.652557
Ti 5.857995 2.005044 19.553952
Ti 7.585642 0.638970 17.253487
Ti 5.857995 2.005044 24.154882
Ti 7.585642 0.638970 21.854417
Ti 5.160014 4.649058 14.953022
Ti 6.887660 3.282985 12.652557
Ti 5.160014 4.649058 19.553952
Ti 6.887660 3.282985 17.253487
Ti 5.160014 4.649058 24.154882
Ti 6.887660 3.282985 21.854417
Ti 4.462033 7.293072 14.953022
Ti 6.189679 5.926999 12.652557
Ti 4.462033 7.293072 19.553952
Ti 6.189679 5.926999 17.253487
Ti 4.462033 7.293072 24.154882
Ti 6.189679 5.926999 21.854417
