54
A
Ti 1.940164 2.106727 5.771987
Ti 2.187942 0.449467 3.463192
Ti 1.940164 2.106727 10.389577
Ti 2.187942 0.449467 8.080782
Ti 1.940164 2.106727 15.007167
Ti 2.187942 0.449467 12.698372
Ti 3.144100 4.662921 5.771987
Ti 3.391878 3.005661 3.463192
Ti 3.144100 4.662921 10.389577
Ti 3.391878 3.005661 8.080782
Ti 3.144100 4.662921 15.007167
Ti 3.391878 3.005661 12.698372
Ti 4.348036 7.219115 5.771987
Ti 4.595814 5.561855 3.463192
Ti 4.348036 7.219115 10.389577
Ti 4.595814 5.561855 8.080782
Ti 4.348036 7.219115 15.007167
Ti 4.595814 5.561855 12.698372
Ti 4.864334 2.106727 10.389577
Ti 5.112112 0.449467 8.080782
Ti 4.864334 2.106727 15.007167
Ti 5.112112 0.449467 12.698372
Ti 4.864334 2.106727 19.624757
Ti 5.112112 0.449467 17.315962
Ti 6.068270 4.662921 10.389577
Ti 6.316048 3.005661 8.080782
Ti 6.068270 4.662921 15.007167
Ti 6.316048 3.005661 12.698372
Ti 6.068270 4.662921 19.624757
Ti 6.316048 3.005661 17.315962
Ti 7.272206 7.219115 10.389577
Ti 7.519984 5.561855 8.080782
Ti 7.272206 7.219115 15.007167
Ti 7.519984 5.561855 12.698372
Ti 7.272206 7.219115 19.624757
Ti 7.519984 5.561855 17.315962
Ti 7.788503 2.106727 15.007167
Ti 8.036281 0.449467 12.698372
Ti 7.788503 2.106727 19.624757
Ti 8.036281 0.449467 17.315962
Ti 7.788503 2.106727 24.242347
Ti 8.036281 0.449467 21.933552
Ti 8.992440 4.662921 15.007167
Ti 9.240218 3.005661 12.698372
Ti 8.992440 4.662921 19.624757
Ti 9.240218 3.005661 17.315962
Ti 8.992440 4.662921 24.242347
Ti 9.240218 3.005661 21.933552
Ti 10.196376 7.219115 15.007167
Ti 10.444154 5.561855 12.698372
Ti 10.196376 7.219115 19.624757
Ti 10.444154 5.561855 17.315962
Ti 10.196376 7.219115 24.242347
Ti 10.444154 5.561855 21.933552
