54
A
Ti -0.510231 2.084576 3.460345
Ti -0.804817 0.491628 1.153448
Ti -0.510231 2.084576 8.074139
Ti -0.804817 0.491628 5.767242
Ti -0.510231 2.084576 12.687933
Ti -0.804817 0.491628 10.381036
Ti -4.727610 4.660780 3.460345
Ti -5.022197 3.067831 1.153448
Ti -4.727610 4.660780 8.074139
Ti -5.022197 3.067831 5.767242
Ti -4.727610 4.660780 12.687933
Ti -5.022197 3.067831 10.381036
Ti -8.944989 7.236983 3.460345
Ti -9.239576 5.644035 1.153448
Ti -8.944989 7.236983 8.074139
Ti -9.239576 5.644035 5.767242
Ti -8.944989 7.236983 12.687933
Ti -9.239576 5.644035 10.381036
Ti 2.392101 2.084576 3.460345
Ti 2.097514 0.491628 1.153448
Ti 2.392101 2.084576 8.074139
Ti 2.097514 0.491628 5.767242
Ti 2.392101 2.084576 12.687933
Ti 2.097514 0.491628 10.381036
Ti -1.825279 4.660780 3.460345
Ti -2.119865 3.067831 1.153448
Ti -1.825279 4.660780 8.074139
Ti -2.119865 3.067831 5.767242
Ti -1.825279 4.660780 12.687933
Ti -2.119865 3.067831 10.381036
Ti -6.042658 7.236983 3.460345
Ti -6.337245 5.644035 1.153448
Ti -6.042658 7.236983 8.074139
Ti -6.337245 5.644035 5.767242
Ti -6.042658 7.236983 12.687933
Ti -6.337245 5.644035 10.381036
Ti 5.294432 2.084576 3.460345
Ti 4.999845 0.491628 1.153448
Ti 5.294432 2.084576 8.074139
Ti 4.999845 0.491628 5.767242
Ti 5.294432 2.084576 12.687933
Ti 4.999845 0.491628 10.381036
Ti 1.077053 4.660780 3.460345
Ti 0.782466 3.067831 1.153448
Ti 1.077053 4.660780 8.074139
Ti 0.782466 3.067831 5.767242
Ti 1.077053 4.660780 12.687933
Ti 0.782466 3.067831 10.381036
Ti -3.140327 7.236983 3.460345
Ti -3.434913 5.644035 1.153448
Ti -3.140327 7.236983 8.074139
Ti -3.434913 5.644035 5.767242
Ti -3.140327 7.236983 12.687933
Ti -3.434913 5.644035 10.381036
