54
A
Ti 1.204139 2.066932 5.763552
Ti 2.114746 0.524835 3.458131
Ti 1.204139 2.066932 10.374393
Ti 2.114746 0.524835 8.068973
Ti 1.204139 2.066932 14.985235
Ti 2.114746 0.524835 12.679814
Ti 1.637679 4.658699 5.763552
Ti 2.548285 3.116601 3.458131
Ti 1.637679 4.658699 10.374393
Ti 2.548285 3.116601 8.068973
Ti 1.637679 4.658699 14.985235
Ti 2.548285 3.116601 12.679814
Ti 2.071218 7.250466 5.763552
Ti 2.981824 5.708368 3.458131
Ti 2.071218 7.250466 10.374393
Ti 2.981824 5.708368 8.068973
Ti 2.071218 7.250466 14.985235
Ti 2.981824 5.708368 12.679814
Ti 4.089485 2.066932 10.374393
Ti 5.000092 0.524835 8.068973
Ti 4.089485 2.066932 14.985235
Ti 5.000092 0.524835 12.679814
Ti 4.089485 2.066932 19.596077
Ti 5.000092 0.524835 17.290656
Ti 4.523025 4.658699 10.374393
Ti 5.433631 3.116601 8.068973
Ti 4.523025 4.658699 14.985235
Ti 5.433631 3.116601 12.679814
Ti 4.523025 4.658699 19.596077
Ti 5.433631 3.116601 17.290656
Ti 4.956564 7.250466 10.374393
Ti 5.867170 5.708368 8.068973
Ti 4.956564 7.250466 14.985235
Ti 5.867170 5.708368 12.679814
Ti 4.956564 7.250466 19.596077
Ti 5.867170 5.708368 17.290656
Ti 6.974832 2.066932 14.985235
Ti 7.885438 0.524835 12.679814
Ti 6.974832 2.066932 19.596077
Ti 7.885438 0.524835 17.290656
Ti 6.974832 2.066932 24.206918
Ti 7.885438 0.524835 21.901497
Ti 7.408371 4.658699 14.985235
Ti 8.318977 3.116601 12.679814
Ti 7.408371 4.658699 19.596077
Ti 8.318977 3.116601 17.290656
Ti 7.408371 4.658699 24.206918
Ti 8.318977 3.116601 21.901497
Ti 7.841910 7.250466 14.985235
Ti 8.752516 5.708368 12.679814
Ti 7.841910 7.250466 19.596077
Ti 8.752516 5.708368 17.290656
Ti 7.841910 7.250466 24.206918
Ti 8.752516 5.708368 21.901497
