54
A
Ti -0.405290 2.066932 3.458131
Ti -0.835554 0.524835 1.152710
Ti -0.405290 2.066932 8.068973
Ti -0.835554 0.524835 5.763552
Ti -0.405290 2.066932 12.679814
Ti -0.835554 0.524835 10.374393
Ti -4.531481 4.658699 3.458131
Ti -4.961745 3.116601 1.152710
Ti -4.531481 4.658699 8.068973
Ti -4.961745 3.116601 5.763552
Ti -4.531481 4.658699 12.679814
Ti -4.961745 3.116601 10.374393
Ti -8.657671 7.250466 3.458131
Ti -9.087935 5.708368 1.152710
Ti -8.657671 7.250466 8.068973
Ti -9.087935 5.708368 5.763552
Ti -8.657671 7.250466 12.679814
Ti -9.087935 5.708368 10.374393
Ti 2.480056 2.066932 3.458131
Ti 2.049792 0.524835 1.152710
Ti 2.480056 2.066932 8.068973
Ti 2.049792 0.524835 5.763552
Ti 2.480056 2.066932 12.679814
Ti 2.049792 0.524835 10.374393
Ti -1.646135 4.658699 3.458131
Ti -2.076399 3.116601 1.152710
Ti -1.646135 4.658699 8.068973
Ti -2.076399 3.116601 5.763552
Ti -1.646135 4.658699 12.679814
Ti -2.076399 3.116601 10.374393
Ti -5.772325 7.250466 3.458131
Ti -6.202589 5.708368 1.152710
Ti -5.772325 7.250466 8.068973
Ti -6.202589 5.708368 5.763552
Ti -5.772325 7.250466 12.679814
Ti -6.202589 5.708368 10.374393
Ti 5.365402 2.066932 3.458131
Ti 4.935138 0.524835 1.152710
Ti 5.365402 2.066932 8.068973
Ti 4.935138 0.524835 5.763552
Ti 5.365402 2.066932 12.679814
Ti 4.935138 0.524835 10.374393
Ti 1.239211 4.658699 3.458131
Ti 0.808947 3.116601 1.152710
Ti 1.239211 4.658699 8.068973
Ti 0.808947 3.116601 5.763552
Ti 1.239211 4.658699 12.679814
Ti 0.808947 3.116601 10.374393
Ti -2.886979 7.250466 3.458131
Ti -3.317243 5.708368 1.152710
Ti -2.886979 7.250466 8.068973
Ti -3.317243 5.708368 5.763552
Ti -2.886979 7.250466 12.679814
Ti -3.317243 5.708368 10.374393
