54
A
Ti 0.080034 1.996848 5.749581
Ti 1.898580 0.653836 3.449748
Ti 0.080034 1.996848 10.349245
Ti 1.898580 0.653836 8.049413
Ti 0.080034 1.996848 14.948910
Ti 1.898580 0.653836 12.649078
Ti -0.762397 4.647532 5.749581
Ti 1.056149 3.304520 3.449748
Ti -0.762397 4.647532 10.349245
Ti 1.056149 3.304520 8.049413
Ti -0.762397 4.647532 14.948910
Ti 1.056149 3.304520 12.649078
Ti -1.604828 7.298216 5.749581
Ti 0.213718 5.955204 3.449748
Ti -1.604828 7.298216 10.349245
Ti 0.213718 5.955204 8.049413
Ti -1.604828 7.298216 14.948910
Ti 0.213718 5.955204 12.649078
Ti 2.901078 1.996848 10.349245
Ti 4.719624 0.653836 8.049413
Ti 2.901078 1.996848 14.948910
Ti 4.719624 0.653836 12.649078
Ti 2.901078 1.996848 19.548575
Ti 4.719624 0.653836 17.248742
Ti 2.058647 4.647532 10.349245
Ti 3.877193 3.304520 8.049413
Ti 2.058647 4.647532 14.948910
Ti 3.877193 3.304520 12.649078
Ti 2.058647 4.647532 19.548575
Ti 3.877193 3.304520 17.248742
Ti 1.216216 7.298216 10.349245
Ti 3.034763 5.955204 8.049413
Ti 1.216216 7.298216 14.948910
Ti 3.034763 5.955204 12.649078
Ti 1.216216 7.298216 19.548575
Ti 3.034763 5.955204 17.248742
Ti 5.722122 1.996848 14.948910
Ti 7.540668 0.653836 12.649078
Ti 5.722122 1.996848 19.548575
Ti 7.540668 0.653836 17.248742
Ti 5.722122 1.996848 24.148239
Ti 7.540668 0.653836 21.848407
Ti 4.879691 4.647532 14.948910
Ti 6.698238 3.304520 12.649078
Ti 4.879691 4.647532 19.548575
Ti 6.698238 3.304520 17.248742
Ti 4.879691 4.647532 24.148239
Ti 6.698238 3.304520 21.848407
Ti 4.037260 7.298216 14.948910
Ti 5.855807 5.955204 12.649078
Ti 4.037260 7.298216 19.548575
Ti 5.855807 5.955204 17.248742
Ti 4.037260 7.298216 24.148239
Ti 5.855807 5.955204 21.848407
