54
A
Ti -0.331636 2.054107 3.456550
Ti -0.856206 0.548776 1.152183
Ti -0.331636 2.054107 8.065282
Ti -0.856206 0.548776 5.760916
Ti -0.331636 2.054107 12.674015
Ti -0.856206 0.548776 10.369649
Ti -4.392691 4.656990 3.456550
Ti -4.917262 3.151659 1.152183
Ti -4.392691 4.656990 8.065282
Ti -4.917262 3.151659 5.760916
Ti -4.392691 4.656990 12.674015
Ti -4.917262 3.151659 10.369649
Ti -8.453747 7.259873 3.456550
Ti -8.978318 5.754542 1.152183
Ti -8.453747 7.259873 8.065282
Ti -8.978318 5.754542 5.760916
Ti -8.453747 7.259873 12.674015
Ti -8.978318 5.754542 10.369649
Ti 2.541578 2.054107 3.456550
Ti 2.017007 0.548776 1.152183
Ti 2.541578 2.054107 8.065282
Ti 2.017007 0.548776 5.760916
Ti 2.541578 2.054107 12.674015
Ti 2.017007 0.548776 10.369649
Ti -1.519478 4.656990 3.456550
Ti -2.044048 3.151659 1.152183
Ti -1.519478 4.656990 8.065282
Ti -2.044048 3.151659 5.760916
Ti -1.519478 4.656990 12.674015
Ti -2.044048 3.151659 10.369649
Ti -5.580533 7.259873 3.456550
Ti -6.105104 5.754542 1.152183
Ti -5.580533 7.259873 8.065282
Ti -6.105104 5.754542 5.760916
Ti -5.580533 7.259873 12.674015
Ti -6.105104 5.754542 10.369649
Ti 5.414792 2.054107 3.456550
Ti 4.890221 0.548776 1.152183
Ti 5.414792 2.054107 8.065282
Ti 4.890221 0.548776 5.760916
Ti 5.414792 2.054107 12.674015
Ti 4.890221 0.548776 10.369649
Ti 1.353736 4.656990 3.456550
Ti 0.829165 3.151659 1.152183
Ti 1.353736 4.656990 8.065282
Ti 0.829165 3.151659 5.760916
Ti 1.353736 4.656990 12.674015
Ti 0.829165 3.151659 10.369649
Ti -2.707320 7.259873 3.456550
Ti -3.231891 5.754542 1.152183
Ti -2.707320 7.259873 8.065282
Ti -3.231891 5.754542 5.760916
Ti -2.707320 7.259873 12.674015
Ti -3.231891 5.754542 10.369649
