54
A
Ti 2.059066 2.112774 5.773305
Ti 2.195480 0.437862 3.463983
Ti 2.059066 2.112774 10.391950
Ti 2.195480 0.437862 8.082627
Ti 2.059066 2.112774 15.010594
Ti 2.195480 0.437862 12.701272
Ti 3.383377 4.663409 5.773305
Ti 3.519791 2.988498 3.463983
Ti 3.383377 4.663409 10.391950
Ti 3.519791 2.988498 8.082627
Ti 3.383377 4.663409 15.010594
Ti 3.519791 2.988498 12.701272
Ti 4.707688 7.214045 5.773305
Ti 4.844102 5.539134 3.463983
Ti 4.707688 7.214045 10.391950
Ti 4.844102 5.539134 8.082627
Ti 4.707688 7.214045 15.010594
Ti 4.844102 5.539134 12.701272
Ti 4.989302 2.112774 10.391950
Ti 5.125716 0.437862 8.082627
Ti 4.989302 2.112774 15.010594
Ti 5.125716 0.437862 12.701272
Ti 4.989302 2.112774 19.629238
Ti 5.125716 0.437862 17.319916
Ti 6.313613 4.663409 10.391950
Ti 6.450027 2.988498 8.082627
Ti 6.313613 4.663409 15.010594
Ti 6.450027 2.988498 12.701272
Ti 6.313613 4.663409 19.629238
Ti 6.450027 2.988498 17.319916
Ti 7.637924 7.214045 10.391950
Ti 7.774338 5.539134 8.082627
Ti 7.637924 7.214045 15.010594
Ti 7.774338 5.539134 12.701272
Ti 7.637924 7.214045 19.629238
Ti 7.774338 5.539134 17.319916
Ti 7.919538 2.112774 15.010594
Ti 8.055952 0.437862 12.701272
Ti 7.919538 2.112774 19.629238
Ti 8.055952 0.437862 17.319916
Ti 7.919538 2.112774 24.247882
Ti 8.055952 0.437862 21.938560
Ti 9.243849 4.663409 15.010594
Ti 9.380263 2.988498 12.701272
Ti 9.243849 4.663409 19.629238
Ti 9.380263 2.988498 17.319916
Ti 9.243849 4.663409 24.247882
Ti 9.380263 2.988498 21.938560
Ti 10.568160 7.214045 15.010594
Ti 10.704574 5.539134 12.701272
Ti 10.568160 7.214045 19.629238
Ti 10.704574 5.539134 17.319916
Ti 10.568160 7.214045 24.247882
Ti 10.704574 5.539134 21.938560
