54
A
Ti 0.787545 2.042406 5.758543
Ti 2.050866 0.570482 3.455126
Ti 0.787545 2.042406 10.365378
Ti 2.050866 0.570482 8.061961
Ti 0.787545 2.042406 14.972213
Ti 2.050866 0.570482 12.668795
Ti 0.763661 4.655294 5.758543
Ti 2.026982 3.183370 3.455126
Ti 0.763661 4.655294 10.365378
Ti 2.026982 3.183370 8.061961
Ti 0.763661 4.655294 14.972213
Ti 2.026982 3.183370 12.668795
Ti 0.739777 7.268182 5.758543
Ti 2.003098 5.796258 3.455126
Ti 0.739777 7.268182 10.365378
Ti 2.003098 5.796258 8.061961
Ti 0.739777 7.268182 14.972213
Ti 2.003098 5.796258 12.668795
Ti 3.649839 2.042406 10.365378
Ti 4.913160 0.570482 8.061961
Ti 3.649839 2.042406 14.972213
Ti 4.913160 0.570482 12.668795
Ti 3.649839 2.042406 19.579048
Ti 4.913160 0.570482 17.275630
Ti 3.625955 4.655294 10.365378
Ti 4.889276 3.183370 8.061961
Ti 3.625955 4.655294 14.972213
Ti 4.889276 3.183370 12.668795
Ti 3.625955 4.655294 19.579048
Ti 4.889276 3.183370 17.275630
Ti 3.602071 7.268182 10.365378
Ti 4.865392 5.796258 8.061961
Ti 3.602071 7.268182 14.972213
Ti 4.865392 5.796258 12.668795
Ti 3.602071 7.268182 19.579048
Ti 4.865392 5.796258 17.275630
Ti 6.512134 2.042406 14.972213
Ti 7.775454 0.570482 12.668795
Ti 6.512134 2.042406 19.579048
Ti 7.775454 0.570482 17.275630
Ti 6.512134 2.042406 24.185882
Ti 7.775454 0.570482 21.882465
Ti 6.488250 4.655294 14.972213
Ti 7.751570 3.183370 12.668795
Ti 6.488250 4.655294 19.579048
Ti 7.751570 3.183370 17.275630
Ti 6.488250 4.655294 24.185882
Ti 7.751570 3.183370 21.882465
Ti 6.464366 7.268182 14.972213
Ti 7.727686 5.796258 12.668795
Ti 6.464366 7.268182 19.579048
Ti 7.727686 5.796258 17.275630
Ti 6.464366 7.268182 24.185882
Ti 7.727686 5.796258 21.882465
