54
A
Ti -0.117185 2.014521 3.451805
Ti -0.911650 0.621712 1.150602
Ti -0.117185 2.014521 8.054211
Ti -0.911650 0.621712 5.753008
Ti -0.117185 2.014521 12.656617
Ti -0.911650 0.621712 10.355414
Ti -3.982836 4.650753 3.451805
Ti -4.777301 3.257945 1.150602
Ti -3.982836 4.650753 8.054211
Ti -4.777301 3.257945 5.753008
Ti -3.982836 4.650753 12.656617
Ti -4.777301 3.257945 10.355414
Ti -7.848487 7.286986 3.451805
Ti -8.642952 5.894177 1.150602
Ti -7.848487 7.286986 8.054211
Ti -8.642952 5.894177 5.753008
Ti -7.848487 7.286986 12.656617
Ti -8.642952 5.894177 10.355414
Ti 2.719631 2.014521 3.451805
Ti 1.925167 0.621712 1.150602
Ti 2.719631 2.014521 8.054211
Ti 1.925167 0.621712 5.753008
Ti 2.719631 2.014521 12.656617
Ti 1.925167 0.621712 10.355414
Ti -1.146020 4.650753 3.451805
Ti -1.940484 3.257945 1.150602
Ti -1.146020 4.650753 8.054211
Ti -1.940484 3.257945 5.753008
Ti -1.146020 4.650753 12.656617
Ti -1.940484 3.257945 10.355414
Ti -5.011671 7.286986 3.451805
Ti -5.806135 5.894177 1.150602
Ti -5.011671 7.286986 8.054211
Ti -5.806135 5.894177 5.753008
Ti -5.011671 7.286986 12.656617
Ti -5.806135 5.894177 10.355414
Ti 5.556448 2.014521 3.451805
Ti 4.761983 0.621712 1.150602
Ti 5.556448 2.014521 8.054211
Ti 4.761983 0.621712 5.753008
Ti 5.556448 2.014521 12.656617
Ti 4.761983 0.621712 10.355414
Ti 1.690797 4.650753 3.451805
Ti 0.896332 3.257945 1.150602
Ti 1.690797 4.650753 8.054211
Ti 0.896332 3.257945 5.753008
Ti 1.690797 4.650753 12.656617
Ti 0.896332 3.257945 10.355414
Ti -2.174854 7.286986 3.451805
Ti -2.969319 5.894177 1.150602
Ti -2.174854 7.286986 8.054211
Ti -2.969319 5.894177 5.753008
Ti -2.174854 7.286986 12.656617
Ti -2.969319 5.894177 10.355414
