54
A
Ti -0.054755 2.002319 3.450381
Ti -0.926377 0.643918 1.150127
Ti -0.054755 2.002319 8.050889
Ti -0.926377 0.643918 5.750635
Ti -0.054755 2.002319 12.651397
Ti -0.926377 0.643918 10.351143
Ti -3.861785 4.648557 3.450381
Ti -4.733407 3.290155 1.150127
Ti -3.861785 4.648557 8.050889
Ti -4.733407 3.290155 5.750635
Ti -3.861785 4.648557 12.651397
Ti -4.733407 3.290155 10.351143
Ti -7.668814 7.294794 3.450381
Ti -8.540436 5.936393 1.150127
Ti -7.668814 7.294794 8.050889
Ti -8.540436 5.936393 5.750635
Ti -7.668814 7.294794 12.651397
Ti -8.540436 5.936393 10.351143
Ti 2.771142 2.002319 3.450381
Ti 1.899520 0.643918 1.150127
Ti 2.771142 2.002319 8.050889
Ti 1.899520 0.643918 5.750635
Ti 2.771142 2.002319 12.651397
Ti 1.899520 0.643918 10.351143
Ti -1.035888 4.648557 3.450381
Ti -1.907510 3.290155 1.150127
Ti -1.035888 4.648557 8.050889
Ti -1.907510 3.290155 5.750635
Ti -1.035888 4.648557 12.651397
Ti -1.907510 3.290155 10.351143
Ti -4.842917 7.294794 3.450381
Ti -5.714539 5.936393 1.150127
Ti -4.842917 7.294794 8.050889
Ti -5.714539 5.936393 5.750635
Ti -4.842917 7.294794 12.651397
Ti -5.714539 5.936393 10.351143
Ti 5.597039 2.002319 3.450381
Ti 4.725417 0.643918 1.150127
Ti 5.597039 2.002319 8.050889
Ti 4.725417 0.643918 5.750635
Ti 5.597039 2.002319 12.651397
Ti 4.725417 0.643918 10.351143
Ti 1.790010 4.648557 3.450381
Ti 0.918388 3.290155 1.150127
Ti 1.790010 4.648557 8.050889
Ti 0.918388 3.290155 5.750635
Ti 1.790010 4.648557 12.651397
Ti 0.918388 3.290155 10.351143
Ti -2.017020 7.294794 3.450381
Ti -2.888642 5.936393 1.150127
Ti -2.017020 7.294794 8.050889
Ti -2.888642 5.936393 5.750635
Ti -2.017020 7.294794 12.651397
Ti -2.888642 5.936393 10.351143
