54
A
Ti -0.317035 2.051520 3.456233
Ti -0.860207 0.553587 1.152078
Ti -0.317035 2.051520 8.064544
Ti -0.860207 0.553587 5.760389
Ti -0.317035 2.051520 12.672855
Ti -0.860207 0.553587 10.368700
Ti -4.365064 4.656626 3.456233
Ti -4.908235 3.158693 1.152078
Ti -4.365064 4.656626 8.064544
Ti -4.908235 3.158693 5.760389
Ti -4.365064 4.656626 12.672855
Ti -4.908235 3.158693 10.368700
Ti -8.413092 7.261733 3.456233
Ti -8.956264 5.763800 1.152078
Ti -8.413092 7.261733 8.064544
Ti -8.956264 5.763800 5.760389
Ti -8.413092 7.261733 12.672855
Ti -8.956264 5.763800 10.368700
Ti 2.553752 2.051520 3.456233
Ti 2.010581 0.553587 1.152078
Ti 2.553752 2.051520 8.064544
Ti 2.010581 0.553587 5.760389
Ti 2.553752 2.051520 12.672855
Ti 2.010581 0.553587 10.368700
Ti -1.494277 4.656626 3.456233
Ti -2.037448 3.158693 1.152078
Ti -1.494277 4.656626 8.064544
Ti -2.037448 3.158693 5.760389
Ti -1.494277 4.656626 12.672855
Ti -2.037448 3.158693 10.368700
Ti -5.542305 7.261733 3.456233
Ti -6.085477 5.763800 1.152078
Ti -5.542305 7.261733 8.064544
Ti -6.085477 5.763800 5.760389
Ti -5.542305 7.261733 12.672855
Ti -6.085477 5.763800 10.368700
Ti 5.424539 2.051520 3.456233
Ti 4.881368 0.553587 1.152078
Ti 5.424539 2.051520 8.064544
Ti 4.881368 0.553587 5.760389
Ti 5.424539 2.051520 12.672855
Ti 4.881368 0.553587 10.368700
Ti 1.376511 4.656626 3.456233
Ti 0.833339 3.158693 1.152078
Ti 1.376511 4.656626 8.064544
Ti 0.833339 3.158693 5.760389
Ti 1.376511 4.656626 12.672855
Ti 0.833339 3.158693 10.368700
Ti -2.671518 7.261733 3.456233
Ti -3.214690 5.763800 1.152078
Ti -2.671518 7.261733 8.064544
Ti -3.214690 5.763800 5.760389
Ti -2.671518 7.261733 12.672855
Ti -3.214690 5.763800 10.368700
