54
A
Ti 0.039932 1.994102 5.749054
Ti 1.888105 0.658805 3.449432
Ti 0.039932 1.994102 10.348296
Ti 1.888105 0.658805 8.048675
Ti 0.039932 1.994102 14.947539
Ti 1.888105 0.658805 12.647918
Ti -0.850648 4.647009 5.749054
Ti 0.997524 3.311713 3.449432
Ti -0.850648 4.647009 10.348296
Ti 0.997524 3.311713 8.048675
Ti -0.850648 4.647009 14.947539
Ti 0.997524 3.311713 12.647918
Ti -1.741229 7.299916 5.749054
Ti 0.106943 5.964620 3.449432
Ti -1.741229 7.299916 10.348296
Ti 0.106943 5.964620 8.048675
Ti -1.741229 7.299916 14.947539
Ti 0.106943 5.964620 12.647918
Ti 2.858550 1.994102 10.348296
Ti 4.706722 0.658805 8.048675
Ti 2.858550 1.994102 14.947539
Ti 4.706722 0.658805 12.647918
Ti 2.858550 1.994102 19.546782
Ti 4.706722 0.658805 17.247161
Ti 1.967970 4.647009 10.348296
Ti 3.816142 3.311713 8.048675
Ti 1.967970 4.647009 14.947539
Ti 3.816142 3.311713 12.647918
Ti 1.967970 4.647009 19.546782
Ti 3.816142 3.311713 17.247161
Ti 1.077389 7.299916 10.348296
Ti 2.925561 5.964620 8.048675
Ti 1.077389 7.299916 14.947539
Ti 2.925561 5.964620 12.647918
Ti 1.077389 7.299916 19.546782
Ti 2.925561 5.964620 17.247161
Ti 5.677168 1.994102 14.947539
Ti 7.525340 0.658805 12.647918
Ti 5.677168 1.994102 19.546782
Ti 7.525340 0.658805 17.247161
Ti 5.677168 1.994102 24.146025
Ti 7.525340 0.658805 21.846404
Ti 4.786587 4.647009 14.947539
Ti 6.634760 3.311713 12.647918
Ti 4.786587 4.647009 19.546782
Ti 6.634760 3.311713 17.247161
Ti 4.786587 4.647009 24.146025
Ti 6.634760 3.311713 21.846404
Ti 3.896007 7.299916 14.947539
Ti 5.744179 5.964620 12.647918
Ti 3.896007 7.299916 19.546782
Ti 5.744179 5.964620 17.247161
Ti 3.896007 7.299916 24.146025
Ti 5.744179 5.964620 21.846404
