54
A
Ti -0.194683 2.029229 3.453544
Ti -0.892455 0.594775 1.151181
Ti -0.194683 2.029229 8.058270
Ti -0.892455 0.594775 5.755907
Ti -0.194683 2.029229 12.662996
Ti -0.892455 0.594775 10.360633
Ti -4.131982 4.653234 3.453544
Ti -4.829754 3.218780 1.151181
Ti -4.131982 4.653234 8.058270
Ti -4.829754 3.218780 5.755907
Ti -4.131982 4.653234 12.662996
Ti -4.829754 3.218780 10.360633
Ti -8.069281 7.277238 3.453544
Ti -8.767054 5.842784 1.151181
Ti -8.069281 7.277238 8.058270
Ti -8.767054 5.842784 5.755907
Ti -8.069281 7.277238 12.662996
Ti -8.767054 5.842784 10.360633
Ti 2.655479 2.029229 3.453544
Ti 1.957707 0.594775 1.151181
Ti 2.655479 2.029229 8.058270
Ti 1.957707 0.594775 5.755907
Ti 2.655479 2.029229 12.662996
Ti 1.957707 0.594775 10.360633
Ti -1.281820 4.653234 3.453544
Ti -1.979592 3.218780 1.151181
Ti -1.281820 4.653234 8.058270
Ti -1.979592 3.218780 5.755907
Ti -1.281820 4.653234 12.662996
Ti -1.979592 3.218780 10.360633
Ti -5.219119 7.277238 3.453544
Ti -5.916892 5.842784 1.151181
Ti -5.219119 7.277238 8.058270
Ti -5.916892 5.842784 5.755907
Ti -5.219119 7.277238 12.662996
Ti -5.916892 5.842784 10.360633
Ti 5.505641 2.029229 3.453544
Ti 4.807869 0.594775 1.151181
Ti 5.505641 2.029229 8.058270
Ti 4.807869 0.594775 5.755907
Ti 5.505641 2.029229 12.662996
Ti 4.807869 0.594775 10.360633
Ti 1.568342 4.653234 3.453544
Ti 0.870570 3.218780 1.151181
Ti 1.568342 4.653234 8.058270
Ti 0.870570 3.218780 5.755907
Ti 1.568342 4.653234 12.662996
Ti 0.870570 3.218780 10.360633
Ti -2.368957 7.277238 3.453544
Ti -3.066730 5.842784 1.151181
Ti -2.368957 7.277238 8.058270
Ti -3.066730 5.842784 5.755907
Ti -2.368957 7.277238 12.662996
Ti -3.066730 5.842784 10.360633
