54
A
Ti -0.353618 2.057974 3.457024
Ti -0.850125 0.541574 1.152341
Ti -0.353618 2.057974 8.066389
Ti -0.850125 0.541574 5.761707
Ti -0.353618 2.057974 12.675755
Ti -0.850125 0.541574 10.371072
Ti -4.434214 4.657522 3.457024
Ti -4.930721 3.141122 1.152341
Ti -4.434214 4.657522 8.066389
Ti -4.930721 3.141122 5.761707
Ti -4.434214 4.657522 12.675755
Ti -4.930721 3.141122 10.371072
Ti -8.514810 7.257071 3.457024
Ti -9.011317 5.740671 1.152341
Ti -8.514810 7.257071 8.066389
Ti -9.011317 5.740671 5.761707
Ti -8.514810 7.257071 12.675755
Ti -9.011317 5.740671 10.371072
Ti 2.523235 2.057974 3.457024
Ti 2.026729 0.541574 1.152341
Ti 2.523235 2.057974 8.066389
Ti 2.026729 0.541574 5.761707
Ti 2.523235 2.057974 12.675755
Ti 2.026729 0.541574 10.371072
Ti -1.557361 4.657522 3.457024
Ti -2.053868 3.141122 1.152341
Ti -1.557361 4.657522 8.066389
Ti -2.053868 3.141122 5.761707
Ti -1.557361 4.657522 12.675755
Ti -2.053868 3.141122 10.371072
Ti -5.637957 7.257071 3.457024
Ti -6.134464 5.740671 1.152341
Ti -5.637957 7.257071 8.066389
Ti -6.134464 5.740671 5.761707
Ti -5.637957 7.257071 12.675755
Ti -6.134464 5.740671 10.371072
Ti 5.400089 2.057974 3.457024
Ti 4.903582 0.541574 1.152341
Ti 5.400089 2.057974 8.066389
Ti 4.903582 0.541574 5.761707
Ti 5.400089 2.057974 12.675755
Ti 4.903582 0.541574 10.371072
Ti 1.319492 4.657522 3.457024
Ti 0.822986 3.141122 1.152341
Ti 1.319492 4.657522 8.066389
Ti 0.822986 3.141122 5.761707
Ti 1.319492 4.657522 12.675755
Ti 0.822986 3.141122 10.371072
Ti -2.761104 7.257071 3.457024
Ti -3.257610 5.740671 1.152341
Ti -2.761104 7.257071 8.066389
Ti -3.257610 5.740671 5.761707
Ti -2.761104 7.257071 12.675755
Ti -3.257610 5.740671 10.371072
