54
A
Ti 0.701779 2.037158 5.757489
Ti 2.035478 0.580177 3.454493
Ti 0.701779 2.037158 10.363480
Ti 2.035478 0.580177 8.060485
Ti 0.701779 2.037158 14.969471
Ti 2.035478 0.580177 12.666476
Ti 0.581596 4.654492 5.757489
Ti 1.915295 3.197512 3.454493
Ti 0.581596 4.654492 10.363480
Ti 1.915295 3.197512 8.060485
Ti 0.581596 4.654492 14.969471
Ti 1.915295 3.197512 12.666476
Ti 0.461412 7.271827 5.757489
Ti 1.795111 5.814846 3.454493
Ti 0.461412 7.271827 10.363480
Ti 1.795111 5.814846 8.060485
Ti 0.461412 7.271827 14.969471
Ti 1.795111 5.814846 12.666476
Ti 3.559221 2.037158 10.363480
Ti 4.892920 0.580177 8.060485
Ti 3.559221 2.037158 14.969471
Ti 4.892920 0.580177 12.666476
Ti 3.559221 2.037158 19.575462
Ti 4.892920 0.580177 17.272467
Ti 3.439037 4.654492 10.363480
Ti 4.772736 3.197512 8.060485
Ti 3.439037 4.654492 14.969471
Ti 4.772736 3.197512 12.666476
Ti 3.439037 4.654492 19.575462
Ti 4.772736 3.197512 17.272467
Ti 3.318854 7.271827 10.363480
Ti 4.652553 5.814846 8.060485
Ti 3.318854 7.271827 14.969471
Ti 4.652553 5.814846 12.666476
Ti 3.318854 7.271827 19.575462
Ti 4.652553 5.814846 17.272467
Ti 6.416662 2.037158 14.969471
Ti 7.750361 0.580177 12.666476
Ti 6.416662 2.037158 19.575462
Ti 7.750361 0.580177 17.272467
Ti 6.416662 2.037158 24.181454
Ti 7.750361 0.580177 21.878458
Ti 6.296479 4.654492 14.969471
Ti 7.630178 3.197512 12.666476
Ti 6.296479 4.654492 19.575462
Ti 7.630178 3.197512 17.272467
Ti 6.296479 4.654492 24.181454
Ti 7.630178 3.197512 21.878458
Ti 6.176295 7.271827 14.969471
Ti 7.509994 5.814846 12.666476
Ti 6.176295 7.271827 19.575462
Ti 7.509994 5.814846 17.272467
Ti 6.176295 7.271827 24.181454
Ti 7.509994 5.814846 21.878458
