54
A
Ti -0.695078 2.113977 3.464141
Ti -0.747176 0.435547 1.154714
Ti -0.695078 2.113977 8.082997
Ti -0.747176 0.435547 5.773569
Ti -0.695078 2.113977 12.701852
Ti -0.747176 0.435547 10.392424
Ti -5.068781 4.663502 3.464141
Ti -5.120879 2.985071 1.154714
Ti -5.068781 4.663502 8.082997
Ti -5.120879 2.985071 5.773569
Ti -5.068781 4.663502 12.701852
Ti -5.120879 2.985071 10.392424
Ti -9.442485 7.213026 3.464141
Ti -9.494582 5.534595 1.154714
Ti -9.442485 7.213026 8.082997
Ti -9.494582 5.534595 5.773569
Ti -9.442485 7.213026 12.701852
Ti -9.494582 5.534595 10.392424
Ti 2.236371 2.113977 3.464141
Ti 2.184274 0.435547 1.154714
Ti 2.236371 2.113977 8.082997
Ti 2.184274 0.435547 5.773569
Ti 2.236371 2.113977 12.701852
Ti 2.184274 0.435547 10.392424
Ti -2.137332 4.663502 3.464141
Ti -2.189430 2.985071 1.154714
Ti -2.137332 4.663502 8.082997
Ti -2.189430 2.985071 5.773569
Ti -2.137332 4.663502 12.701852
Ti -2.189430 2.985071 10.392424
Ti -6.511035 7.213026 3.464141
Ti -6.563133 5.534595 1.154714
Ti -6.511035 7.213026 8.082997
Ti -6.563133 5.534595 5.773569
Ti -6.511035 7.213026 12.701852
Ti -6.563133 5.534595 10.392424
Ti 5.167820 2.113977 3.464141
Ti 5.115723 0.435547 1.154714
Ti 5.167820 2.113977 8.082997
Ti 5.115723 0.435547 5.773569
Ti 5.167820 2.113977 12.701852
Ti 5.115723 0.435547 10.392424
Ti 0.794117 4.663502 3.464141
Ti 0.742020 2.985071 1.154714
Ti 0.794117 4.663502 8.082997
Ti 0.742020 2.985071 5.773569
Ti 0.794117 4.663502 12.701852
Ti 0.742020 2.985071 10.392424
Ti -3.579586 7.213026 3.464141
Ti -3.631684 5.534595 1.154714
Ti -3.579586 7.213026 8.082997
Ti -3.631684 5.534595 5.773569
Ti -3.579586 7.213026 12.701852
Ti -3.631684 5.534595 10.392424
