54
A
Ti 1.635949 2.090789 5.768560
Ti 2.163411 0.479856 3.461136
Ti 1.635949 2.090789 10.383409
Ti 2.163411 0.479856 8.075985
Ti 1.635949 2.090789 14.998257
Ti 2.163411 0.479856 12.690833
Ti 2.526911 4.661435 5.768560
Ti 3.054374 3.050502 3.461136
Ti 2.526911 4.661435 10.383409
Ti 3.054374 3.050502 8.075985
Ti 2.526911 4.661435 14.998257
Ti 3.054374 3.050502 12.690833
Ti 3.417874 7.232080 5.768560
Ti 3.945336 5.621147 3.461136
Ti 3.417874 7.232080 10.383409
Ti 3.945336 5.621147 8.075985
Ti 3.417874 7.232080 14.998257
Ti 3.945336 5.621147 12.690833
Ti 4.544347 2.090789 10.383409
Ti 5.071809 0.479856 8.075985
Ti 4.544347 2.090789 14.998257
Ti 5.071809 0.479856 12.690833
Ti 4.544347 2.090789 19.613105
Ti 5.071809 0.479856 17.305681
Ti 5.435309 4.661435 10.383409
Ti 5.962771 3.050502 8.075985
Ti 5.435309 4.661435 14.998257
Ti 5.962771 3.050502 12.690833
Ti 5.435309 4.661435 19.613105
Ti 5.962771 3.050502 17.305681
Ti 6.326271 7.232080 10.383409
Ti 6.853734 5.621147 8.075985
Ti 6.326271 7.232080 14.998257
Ti 6.853734 5.621147 12.690833
Ti 6.326271 7.232080 19.613105
Ti 6.853734 5.621147 17.305681
Ti 7.452744 2.090789 14.998257
Ti 7.980206 0.479856 12.690833
Ti 7.452744 2.090789 19.613105
Ti 7.980206 0.479856 17.305681
Ti 7.452744 2.090789 24.227954
Ti 7.980206 0.479856 21.920530
Ti 8.343707 4.661435 14.998257
Ti 8.871169 3.050502 12.690833
Ti 8.343707 4.661435 19.613105
Ti 8.871169 3.050502 17.305681
Ti 8.343707 4.661435 24.227954
Ti 8.871169 3.050502 21.920530
Ti 9.234669 7.232080 14.998257
Ti 9.762131 5.621147 12.690833
Ti 9.234669 7.232080 19.613105
Ti 9.762131 5.621147 17.305681
Ti 9.234669 7.232080 24.227954
Ti 9.762131 5.621147 21.920530
