54
A
Ti 0.553313 2.027901 5.755644
Ti 2.006928 0.597215 3.453386
Ti 0.553313 2.027901 10.360159
Ti 2.006928 0.597215 8.057901
Ti 0.553313 2.027901 14.964674
Ti 2.006928 0.597215 12.662416
Ti 0.264605 4.653017 5.755644
Ti 1.718220 3.222331 3.453386
Ti 0.264605 4.653017 10.360159
Ti 1.718220 3.222331 8.057901
Ti 0.264605 4.653017 14.964674
Ti 1.718220 3.222331 12.662416
Ti -0.024103 7.278134 5.755644
Ti 1.429512 5.847447 3.453386
Ti -0.024103 7.278134 10.360159
Ti 1.429512 5.847447 8.057901
Ti -0.024103 7.278134 14.964674
Ti 1.429512 5.847447 12.662416
Ti 3.402261 2.027901 10.360159
Ti 4.855877 0.597215 8.057901
Ti 3.402261 2.027901 14.964674
Ti 4.855877 0.597215 12.662416
Ti 3.402261 2.027901 19.569189
Ti 4.855877 0.597215 17.266931
Ti 3.113553 4.653017 10.360159
Ti 4.567169 3.222331 8.057901
Ti 3.113553 4.653017 14.964674
Ti 4.567169 3.222331 12.662416
Ti 3.113553 4.653017 19.569189
Ti 4.567169 3.222331 17.266931
Ti 2.824845 7.278134 10.360159
Ti 4.278461 5.847447 8.057901
Ti 2.824845 7.278134 14.964674
Ti 4.278461 5.847447 12.662416
Ti 2.824845 7.278134 19.569189
Ti 4.278461 5.847447 17.266931
Ti 6.251210 2.027901 14.964674
Ti 7.704826 0.597215 12.662416
Ti 6.251210 2.027901 19.569189
Ti 7.704826 0.597215 17.266931
Ti 6.251210 2.027901 24.173704
Ti 7.704826 0.597215 21.871446
Ti 5.962502 4.653017 14.964674
Ti 7.416118 3.222331 12.662416
Ti 5.962502 4.653017 19.569189
Ti 7.416118 3.222331 17.266931
Ti 5.962502 4.653017 24.173704
Ti 7.416118 3.222331 21.871446
Ti 5.673794 7.278134 14.964674
Ti 7.127410 5.847447 12.662416
Ti 5.673794 7.278134 19.569189
Ti 7.127410 5.847447 17.266931
Ti 5.673794 7.278134 24.173704
Ti 7.127410 5.847447 21.871446
