54
A
Ti 1.271308 2.070743 5.764343
Ti 2.123441 0.517688 3.458606
Ti 1.271308 2.070743 10.375817
Ti 2.123441 0.517688 8.070080
Ti 1.271308 2.070743 14.987291
Ti 2.123441 0.517688 12.681554
Ti 1.777072 4.659175 5.764343
Ti 2.629205 3.106120 3.458606
Ti 1.777072 4.659175 10.375817
Ti 2.629205 3.106120 8.070080
Ti 1.777072 4.659175 14.987291
Ti 2.629205 3.106120 12.681554
Ti 2.282836 7.247607 5.764343
Ti 3.134969 5.694552 3.458606
Ti 2.282836 7.247607 10.375817
Ti 3.134969 5.694552 8.070080
Ti 2.282836 7.247607 14.987291
Ti 3.134969 5.694552 12.681554
Ti 4.160294 2.070743 10.375817
Ti 5.012427 0.517688 8.070080
Ti 4.160294 2.070743 14.987291
Ti 5.012427 0.517688 12.681554
Ti 4.160294 2.070743 19.598765
Ti 5.012427 0.517688 17.293028
Ti 4.666058 4.659175 10.375817
Ti 5.518191 3.106120 8.070080
Ti 4.666058 4.659175 14.987291
Ti 5.518191 3.106120 12.681554
Ti 4.666058 4.659175 19.598765
Ti 5.518191 3.106120 17.293028
Ti 5.171822 7.247607 10.375817
Ti 6.023955 5.694552 8.070080
Ti 5.171822 7.247607 14.987291
Ti 6.023955 5.694552 12.681554
Ti 5.171822 7.247607 19.598765
Ti 6.023955 5.694552 17.293028
Ti 7.049280 2.070743 14.987291
Ti 7.901413 0.517688 12.681554
Ti 7.049280 2.070743 19.598765
Ti 7.901413 0.517688 17.293028
Ti 7.049280 2.070743 24.210239
Ti 7.901413 0.517688 21.904502
Ti 7.555044 4.659175 14.987291
Ti 8.407177 3.106120 12.681554
Ti 7.555044 4.659175 19.598765
Ti 8.407177 3.106120 17.293028
Ti 7.555044 4.659175 24.210239
Ti 8.407177 3.106120 21.904502
Ti 8.060808 7.247607 14.987291
Ti 8.912941 5.694552 12.681554
Ti 8.060808 7.247607 19.598765
Ti 8.912941 5.694552 17.293028
Ti 8.060808 7.247607 24.210239
Ti 8.912941 5.694552 21.904502
