54
A
Ti -0.027291 1.996848 3.449748
Ti -0.932641 0.653836 1.149916
Ti -0.027291 1.996848 8.049413
Ti -0.932641 0.653836 5.749581
Ti -0.027291 1.996848 12.649078
Ti -0.932641 0.653836 10.349245
Ti -3.808266 4.647532 3.449748
Ti -4.713616 3.304520 1.149916
Ti -3.808266 4.647532 8.049413
Ti -4.713616 3.304520 5.749581
Ti -3.808266 4.647532 12.649078
Ti -4.713616 3.304520 10.349245
Ti -7.589242 7.298216 3.449748
Ti -8.494592 5.955204 1.149916
Ti -7.589242 7.298216 8.049413
Ti -8.494592 5.955204 5.749581
Ti -7.589242 7.298216 12.649078
Ti -8.494592 5.955204 10.349245
Ti 2.793754 1.996848 3.449748
Ti 1.888404 0.653836 1.149916
Ti 2.793754 1.996848 8.049413
Ti 1.888404 0.653836 5.749581
Ti 2.793754 1.996848 12.649078
Ti 1.888404 0.653836 10.349245
Ti -0.987222 4.647532 3.449748
Ti -1.892572 3.304520 1.149916
Ti -0.987222 4.647532 8.049413
Ti -1.892572 3.304520 5.749581
Ti -0.987222 4.647532 12.649078
Ti -1.892572 3.304520 10.349245
Ti -4.768198 7.298216 3.449748
Ti -5.673548 5.955204 1.149916
Ti -4.768198 7.298216 8.049413
Ti -5.673548 5.955204 5.749581
Ti -4.768198 7.298216 12.649078
Ti -5.673548 5.955204 10.349245
Ti 5.614798 1.996848 3.449748
Ti 4.709448 0.653836 1.149916
Ti 5.614798 1.996848 8.049413
Ti 4.709448 0.653836 5.749581
Ti 5.614798 1.996848 12.649078
Ti 4.709448 0.653836 10.349245
Ti 1.833822 4.647532 3.449748
Ti 0.928472 3.304520 1.149916
Ti 1.833822 4.647532 8.049413
Ti 0.928472 3.304520 5.749581
Ti 1.833822 4.647532 12.649078
Ti 0.928472 3.304520 10.349245
Ti -1.947154 7.298216 3.449748
Ti -2.852504 5.955204 1.149916
Ti -1.947154 7.298216 8.049413
Ti -2.852504 5.955204 5.749581
Ti -1.947154 7.298216 12.649078
Ti -2.852504 5.955204 10.349245
