54
A
Ti -0.131178 2.017211 3.452121
Ti -0.908257 0.616798 1.150707
Ti -0.131178 2.017211 8.054949
Ti -0.908257 0.616798 5.753535
Ti -0.131178 2.017211 12.657777
Ti -0.908257 0.616798 10.356363
Ti -4.009856 4.651221 3.452121
Ti -4.786935 3.250807 1.150707
Ti -4.009856 4.651221 8.054949
Ti -4.786935 3.250807 5.753535
Ti -4.009856 4.651221 12.657777
Ti -4.786935 3.250807 10.356363
Ti -7.888534 7.285230 3.452121
Ti -8.665613 5.884816 1.150707
Ti -7.888534 7.285230 8.054949
Ti -8.665613 5.884816 5.753535
Ti -7.888534 7.285230 12.657777
Ti -8.665613 5.884816 10.356363
Ti 2.708065 2.017211 3.452121
Ti 1.930986 0.616798 1.150707
Ti 2.708065 2.017211 8.054949
Ti 1.930986 0.616798 5.753535
Ti 2.708065 2.017211 12.657777
Ti 1.930986 0.616798 10.356363
Ti -1.170613 4.651221 3.452121
Ti -1.947692 3.250807 1.150707
Ti -1.170613 4.651221 8.054949
Ti -1.947692 3.250807 5.753535
Ti -1.170613 4.651221 12.657777
Ti -1.947692 3.250807 10.356363
Ti -5.049291 7.285230 3.452121
Ti -5.826370 5.884816 1.150707
Ti -5.049291 7.285230 8.054949
Ti -5.826370 5.884816 5.753535
Ti -5.049291 7.285230 12.657777
Ti -5.826370 5.884816 10.356363
Ti 5.547308 2.017211 3.452121
Ti 4.770228 0.616798 1.150707
Ti 5.547308 2.017211 8.054949
Ti 4.770228 0.616798 5.753535
Ti 5.547308 2.017211 12.657777
Ti 4.770228 0.616798 10.356363
Ti 1.668630 4.651221 3.452121
Ti 0.891550 3.250807 1.150707
Ti 1.668630 4.651221 8.054949
Ti 0.891550 3.250807 5.753535
Ti 1.668630 4.651221 12.657777
Ti 0.891550 3.250807 10.356363
Ti -2.210048 7.285230 3.452121
Ti -2.987128 5.884816 1.150707
Ti -2.210048 7.285230 8.054949
Ti -2.987128 5.884816 5.753535
Ti -2.210048 7.285230 12.657777
Ti -2.987128 5.884816 10.356363
