54
A
Ti 0.574396 2.029229 5.755907
Ti 2.011133 0.594775 3.453544
Ti 0.574396 2.029229 10.360633
Ti 2.011133 0.594775 8.058270
Ti 0.574396 2.029229 14.965359
Ti 2.011133 0.594775 12.662996
Ti 0.309763 4.653234 5.755907
Ti 1.746500 3.218780 3.453544
Ti 0.309763 4.653234 10.360633
Ti 1.746500 3.218780 8.058270
Ti 0.309763 4.653234 14.965359
Ti 1.746500 3.218780 12.662996
Ti 0.045130 7.277238 5.755907
Ti 1.481867 5.842784 3.453544
Ti 0.045130 7.277238 10.360633
Ti 1.481867 5.842784 8.058270
Ti 0.045130 7.277238 14.965359
Ti 1.481867 5.842784 12.662996
Ti 3.424558 2.029229 10.360633
Ti 4.861295 0.594775 8.058270
Ti 3.424558 2.029229 14.965359
Ti 4.861295 0.594775 12.662996
Ti 3.424558 2.029229 19.570085
Ti 4.861295 0.594775 17.267722
Ti 3.159925 4.653234 10.360633
Ti 4.596662 3.218780 8.058270
Ti 3.159925 4.653234 14.965359
Ti 4.596662 3.218780 12.662996
Ti 3.159925 4.653234 19.570085
Ti 4.596662 3.218780 17.267722
Ti 2.895292 7.277238 10.360633
Ti 4.332029 5.842784 8.058270
Ti 2.895292 7.277238 14.965359
Ti 4.332029 5.842784 12.662996
Ti 2.895292 7.277238 19.570085
Ti 4.332029 5.842784 17.267722
Ti 6.274720 2.029229 14.965359
Ti 7.711457 0.594775 12.662996
Ti 6.274720 2.029229 19.570085
Ti 7.711457 0.594775 17.267722
Ti 6.274720 2.029229 24.174811
Ti 7.711457 0.594775 21.872448
Ti 6.010087 4.653234 14.965359
Ti 7.446824 3.218780 12.662996
Ti 6.010087 4.653234 19.570085
Ti 7.446824 3.218780 17.267722
Ti 6.010087 4.653234 24.174811
Ti 7.446824 3.218780 21.872448
Ti 5.745454 7.277238 14.965359
Ti 7.182191 5.842784 12.662996
Ti 5.745454 7.277238 19.570085
Ti 7.182191 5.842784 17.267722
Ti 5.745454 7.277238 24.174811
Ti 7.182191 5.842784 21.872448
