54
A
Ti 0.939257 2.051520 5.760389
Ti 2.076171 0.553587 3.456233
Ti 0.939257 2.051520 10.368700
Ti 2.076171 0.553587 8.064544
Ti 0.939257 2.051520 14.977010
Ti 2.076171 0.553587 12.672855
Ti 1.083897 4.656626 5.760389
Ti 2.220811 3.158693 3.456233
Ti 1.083897 4.656626 10.368700
Ti 2.220811 3.158693 8.064544
Ti 1.083897 4.656626 14.977010
Ti 2.220811 3.158693 12.672855
Ti 1.228538 7.261733 5.760389
Ti 2.365451 5.763800 3.456233
Ti 1.228538 7.261733 10.368700
Ti 2.365451 5.763800 8.064544
Ti 1.228538 7.261733 14.977010
Ti 2.365451 5.763800 12.672855
Ti 3.810044 2.051520 10.368700
Ti 4.946958 0.553587 8.064544
Ti 3.810044 2.051520 14.977010
Ti 4.946958 0.553587 12.672855
Ti 3.810044 2.051520 19.585321
Ti 4.946958 0.553587 17.281166
Ti 3.954684 4.656626 10.368700
Ti 5.091598 3.158693 8.064544
Ti 3.954684 4.656626 14.977010
Ti 5.091598 3.158693 12.672855
Ti 3.954684 4.656626 19.585321
Ti 5.091598 3.158693 17.281166
Ti 4.099325 7.261733 10.368700
Ti 5.236238 5.763800 8.064544
Ti 4.099325 7.261733 14.977010
Ti 5.236238 5.763800 12.672855
Ti 4.099325 7.261733 19.585321
Ti 5.236238 5.763800 17.281166
Ti 6.680831 2.051520 14.977010
Ti 7.817745 0.553587 12.672855
Ti 6.680831 2.051520 19.585321
Ti 7.817745 0.553587 17.281166
Ti 6.680831 2.051520 24.193632
Ti 7.817745 0.553587 21.889477
Ti 6.825472 4.656626 14.977010
Ti 7.962385 3.158693 12.672855
Ti 6.825472 4.656626 19.585321
Ti 7.962385 3.158693 17.281166
Ti 6.825472 4.656626 24.193632
Ti 7.962385 3.158693 21.889477
Ti 6.970112 7.261733 14.977010
Ti 8.107025 5.763800 12.672855
Ti 6.970112 7.261733 19.585321
Ti 8.107025 5.763800 17.281166
Ti 6.970112 7.261733 24.193632
Ti 8.107025 5.763800 21.889477
