54
A
Ti 0.344800 2.014521 5.753008
Ti 1.962560 0.621712 3.451805
Ti 0.344800 2.014521 10.355414
Ti 1.962560 0.621712 8.054211
Ti 0.344800 2.014521 14.957820
Ti 1.962560 0.621712 12.656617
Ti -0.184657 4.650753 5.753008
Ti 1.433103 3.257945 3.451805
Ti -0.184657 4.650753 10.355414
Ti 1.433103 3.257945 8.054211
Ti -0.184657 4.650753 14.957820
Ti 1.433103 3.257945 12.656617
Ti -0.714114 7.286986 5.753008
Ti 0.903646 5.894177 3.451805
Ti -0.714114 7.286986 10.355414
Ti 0.903646 5.894177 8.054211
Ti -0.714114 7.286986 14.957820
Ti 0.903646 5.894177 12.656617
Ti 3.181616 2.014521 10.355414
Ti 4.799376 0.621712 8.054211
Ti 3.181616 2.014521 14.957820
Ti 4.799376 0.621712 12.656617
Ti 3.181616 2.014521 19.560226
Ti 4.799376 0.621712 17.259023
Ti 2.652159 4.650753 10.355414
Ti 4.269919 3.257945 8.054211
Ti 2.652159 4.650753 14.957820
Ti 4.269919 3.257945 12.656617
Ti 2.652159 4.650753 19.560226
Ti 4.269919 3.257945 17.259023
Ti 2.122702 7.286986 10.355414
Ti 3.740462 5.894177 8.054211
Ti 2.122702 7.286986 14.957820
Ti 3.740462 5.894177 12.656617
Ti 2.122702 7.286986 19.560226
Ti 3.740462 5.894177 17.259023
Ti 6.018432 2.014521 14.957820
Ti 7.636193 0.621712 12.656617
Ti 6.018432 2.014521 19.560226
Ti 7.636193 0.621712 17.259023
Ti 6.018432 2.014521 24.162632
Ti 7.636193 0.621712 21.861429
Ti 5.488975 4.650753 14.957820
Ti 7.106735 3.257945 12.656617
Ti 5.488975 4.650753 19.560226
Ti 7.106735 3.257945 17.259023
Ti 5.488975 4.650753 24.162632
Ti 7.106735 3.257945 21.861429
Ti 4.959518 7.286986 14.957820
Ti 6.577278 5.894177 12.656617
Ti 4.959518 7.286986 19.560226
Ti 6.577278 5.894177 17.259023
Ti 4.959518 7.286986 24.162632
Ti 6.577278 5.894177 21.861429
