54
A
Ti -0.075467 2.006403 3.450856
Ti -0.921566 0.636499 1.150285
Ti -0.075467 2.006403 8.051996
Ti -0.921566 0.636499 5.751426
Ti -0.075467 2.006403 12.653137
Ti -0.921566 0.636499 10.352567
Ti -3.902037 4.649306 3.450856
Ti -4.748136 3.279402 1.150285
Ti -3.902037 4.649306 8.051996
Ti -4.748136 3.279402 5.751426
Ti -3.902037 4.649306 12.653137
Ti -4.748136 3.279402 10.352567
Ti -7.728608 7.292208 3.450856
Ti -8.574706 5.922304 1.150285
Ti -7.728608 7.292208 8.051996
Ti -8.574706 5.922304 5.751426
Ti -7.728608 7.292208 12.653137
Ti -8.574706 5.922304 10.352567
Ti 2.754069 2.006403 3.450856
Ti 1.907971 0.636499 1.150285
Ti 2.754069 2.006403 8.051996
Ti 1.907971 0.636499 5.751426
Ti 2.754069 2.006403 12.653137
Ti 1.907971 0.636499 10.352567
Ti -1.072501 4.649306 3.450856
Ti -1.918599 3.279402 1.150285
Ti -1.072501 4.649306 8.051996
Ti -1.918599 3.279402 5.751426
Ti -1.072501 4.649306 12.653137
Ti -1.918599 3.279402 10.352567
Ti -4.899071 7.292208 3.450856
Ti -5.745169 5.922304 1.150285
Ti -4.899071 7.292208 8.051996
Ti -5.745169 5.922304 5.751426
Ti -4.899071 7.292208 12.653137
Ti -5.745169 5.922304 10.352567
Ti 5.583606 2.006403 3.450856
Ti 4.737508 0.636499 1.150285
Ti 5.583606 2.006403 8.051996
Ti 4.737508 0.636499 5.751426
Ti 5.583606 2.006403 12.653137
Ti 4.737508 0.636499 10.352567
Ti 1.757036 4.649306 3.450856
Ti 0.910938 3.279402 1.150285
Ti 1.757036 4.649306 8.051996
Ti 0.910938 3.279402 5.751426
Ti 1.757036 4.649306 12.653137
Ti 0.910938 3.279402 10.352567
Ti -2.069534 7.292208 3.450856
Ti -2.915632 5.922304 1.150285
Ti -2.069534 7.292208 8.051996
Ti -2.915632 5.922304 5.751426
Ti -2.069534 7.292208 12.653137
Ti -2.915632 5.922304 10.352567
