54
A
Ti 0.386165 2.017211 5.753535
Ti 1.971771 0.616798 3.452121
Ti 0.386165 2.017211 10.356363
Ti 1.971771 0.616798 8.054949
Ti 0.386165 2.017211 14.959191
Ti 1.971771 0.616798 12.657777
Ti -0.095142 4.651221 5.753535
Ti 1.490463 3.250807 3.452121
Ti -0.095142 4.651221 10.356363
Ti 1.490463 3.250807 8.054949
Ti -0.095142 4.651221 14.959191
Ti 1.490463 3.250807 12.657777
Ti -0.576449 7.285230 5.753535
Ti 1.009156 5.884816 3.452121
Ti -0.576449 7.285230 10.356363
Ti 1.009156 5.884816 8.054949
Ti -0.576449 7.285230 14.959191
Ti 1.009156 5.884816 12.657777
Ti 3.225408 2.017211 10.356363
Ti 4.811013 0.616798 8.054949
Ti 3.225408 2.017211 14.959191
Ti 4.811013 0.616798 12.657777
Ti 3.225408 2.017211 19.562019
Ti 4.811013 0.616798 17.260605
Ti 2.744101 4.651221 10.356363
Ti 4.329706 3.250807 8.054949
Ti 2.744101 4.651221 14.959191
Ti 4.329706 3.250807 12.657777
Ti 2.744101 4.651221 19.562019
Ti 4.329706 3.250807 17.260605
Ti 2.262793 7.285230 10.356363
Ti 3.848399 5.884816 8.054949
Ti 2.262793 7.285230 14.959191
Ti 3.848399 5.884816 12.657777
Ti 2.262793 7.285230 19.562019
Ti 3.848399 5.884816 17.260605
Ti 6.064651 2.017211 14.959191
Ti 7.650256 0.616798 12.657777
Ti 6.064651 2.017211 19.562019
Ti 7.650256 0.616798 17.260605
Ti 6.064651 2.017211 24.164846
Ti 7.650256 0.616798 21.863432
Ti 5.583343 4.651221 14.959191
Ti 7.168949 3.250807 12.657777
Ti 5.583343 4.651221 19.562019
Ti 7.168949 3.250807 17.260605
Ti 5.583343 4.651221 24.164846
Ti 7.168949 3.250807 21.863432
Ti 5.102036 7.285230 14.959191
Ti 6.687642 5.884816 12.657777
Ti 5.102036 7.285230 19.562019
Ti 6.687642 5.884816 17.260605
Ti 5.102036 7.285230 24.164846
Ti 6.687642 5.884816 21.863432
