54
A
Ti -0.457494 2.075799 3.459238
Ti -0.820452 0.508186 1.153079
Ti -0.457494 2.075799 8.071556
Ti -0.820452 0.508186 5.765397
Ti -0.457494 2.075799 12.683874
Ti -0.820452 0.508186 10.377715
Ti -4.629279 4.659785 3.459238
Ti -4.992237 3.092171 1.153079
Ti -4.629279 4.659785 8.071556
Ti -4.992237 3.092171 5.765397
Ti -4.629279 4.659785 12.683874
Ti -4.992237 3.092171 10.377715
Ti -8.801064 7.243770 3.459238
Ti -9.164022 5.676156 1.153079
Ti -8.801064 7.243770 8.071556
Ti -9.164022 5.676156 5.765397
Ti -8.801064 7.243770 12.683874
Ti -9.164022 5.676156 10.377715
Ti 2.436344 2.075799 3.459238
Ti 2.073387 0.508186 1.153079
Ti 2.436344 2.075799 8.071556
Ti 2.073387 0.508186 5.765397
Ti 2.436344 2.075799 12.683874
Ti 2.073387 0.508186 10.377715
Ti -1.735441 4.659785 3.459238
Ti -2.098398 3.092171 1.153079
Ti -1.735441 4.659785 8.071556
Ti -2.098398 3.092171 5.765397
Ti -1.735441 4.659785 12.683874
Ti -2.098398 3.092171 10.377715
Ti -5.907226 7.243770 3.459238
Ti -6.270183 5.676156 1.153079
Ti -5.907226 7.243770 8.071556
Ti -6.270183 5.676156 5.765397
Ti -5.907226 7.243770 12.683874
Ti -6.270183 5.676156 10.377715
Ti 5.330183 2.075799 3.459238
Ti 4.967226 0.508186 1.153079
Ti 5.330183 2.075799 8.071556
Ti 4.967226 0.508186 5.765397
Ti 5.330183 2.075799 12.683874
Ti 4.967226 0.508186 10.377715
Ti 1.158398 4.659785 3.459238
Ti 0.795441 3.092171 1.153079
Ti 1.158398 4.659785 8.071556
Ti 0.795441 3.092171 5.765397
Ti 1.158398 4.659785 12.683874
Ti 0.795441 3.092171 10.377715
Ti -3.013387 7.243770 3.459238
Ti -3.376344 5.676156 1.153079
Ti -3.013387 7.243770 8.071556
Ti -3.376344 5.676156 5.765397
Ti -3.013387 7.243770 12.683874
Ti -3.376344 5.676156 10.377715
