54
A
Ti -0.480031 2.079572 3.459713
Ti -0.813816 0.501078 1.153238
Ti -0.480031 2.079572 8.072663
Ti -0.813816 0.501078 5.766188
Ti -0.480031 2.079572 12.685614
Ti -0.813816 0.501078 10.379138
Ti -4.671356 4.660222 3.459713
Ti -5.005142 3.081729 1.153238
Ti -4.671356 4.660222 8.072663
Ti -5.005142 3.081729 5.766188
Ti -4.671356 4.660222 12.685614
Ti -5.005142 3.081729 10.379138
Ti -8.862681 7.240872 3.459713
Ti -9.196467 5.662379 1.153238
Ti -8.862681 7.240872 8.072663
Ti -9.196467 5.662379 5.766188
Ti -8.862681 7.240872 12.685614
Ti -9.196467 5.662379 10.379138
Ti 2.417448 2.079572 3.459713
Ti 2.083662 0.501078 1.153238
Ti 2.417448 2.079572 8.072663
Ti 2.083662 0.501078 5.766188
Ti 2.417448 2.079572 12.685614
Ti 2.083662 0.501078 10.379138
Ti -1.773878 4.660222 3.459713
Ti -2.107664 3.081729 1.153238
Ti -1.773878 4.660222 8.072663
Ti -2.107664 3.081729 5.766188
Ti -1.773878 4.660222 12.685614
Ti -2.107664 3.081729 10.379138
Ti -5.965203 7.240872 3.459713
Ti -6.298989 5.662379 1.153238
Ti -5.965203 7.240872 8.072663
Ti -6.298989 5.662379 5.766188
Ti -5.965203 7.240872 12.685614
Ti -6.298989 5.662379 10.379138
Ti 5.314926 2.079572 3.459713
Ti 4.981140 0.501078 1.153238
Ti 5.314926 2.079572 8.072663
Ti 4.981140 0.501078 5.766188
Ti 5.314926 2.079572 12.685614
Ti 4.981140 0.501078 10.379138
Ti 1.123601 4.660222 3.459713
Ti 0.789815 3.081729 1.153238
Ti 1.123601 4.660222 8.072663
Ti 0.789815 3.081729 5.766188
Ti 1.123601 4.660222 12.685614
Ti 0.789815 3.081729 10.379138
Ti -3.067725 7.240872 3.459713
Ti -3.401511 5.662379 1.153238
Ti -3.067725 7.240872 8.072663
Ti -3.401511 5.662379 5.766188
Ti -3.067725 7.240872 12.685614
Ti -3.401511 5.662379 10.379138
