54
A
Ti -0.266275 2.042406 3.455126
Ti -0.873865 0.570482 1.151709
Ti -0.266275 2.042406 8.061961
Ti -0.873865 0.570482 5.758543
Ti -0.266275 2.042406 12.668795
Ti -0.873865 0.570482 10.365378
Ti -4.268709 4.655294 3.455126
Ti -4.876299 3.183370 1.151709
Ti -4.268709 4.655294 8.061961
Ti -4.876299 3.183370 5.758543
Ti -4.268709 4.655294 12.668795
Ti -4.876299 3.183370 10.365378
Ti -8.271143 7.268182 3.455126
Ti -8.878734 5.796258 1.151709
Ti -8.271143 7.268182 8.061961
Ti -8.878734 5.796258 5.758543
Ti -8.271143 7.268182 12.668795
Ti -8.878734 5.796258 10.365378
Ti 2.596020 2.042406 3.455126
Ti 1.988429 0.570482 1.151709
Ti 2.596020 2.042406 8.061961
Ti 1.988429 0.570482 5.758543
Ti 2.596020 2.042406 12.668795
Ti 1.988429 0.570482 10.365378
Ti -1.406414 4.655294 3.455126
Ti -2.014005 3.183370 1.151709
Ti -1.406414 4.655294 8.061961
Ti -2.014005 3.183370 5.758543
Ti -1.406414 4.655294 12.668795
Ti -2.014005 3.183370 10.365378
Ti -5.408849 7.268182 3.455126
Ti -6.016439 5.796258 1.151709
Ti -5.408849 7.268182 8.061961
Ti -6.016439 5.796258 5.758543
Ti -5.408849 7.268182 12.668795
Ti -6.016439 5.796258 10.365378
Ti 5.458314 2.042406 3.455126
Ti 4.850724 0.570482 1.151709
Ti 5.458314 2.042406 8.061961
Ti 4.850724 0.570482 5.758543
Ti 5.458314 2.042406 12.668795
Ti 4.850724 0.570482 10.365378
Ti 1.455880 4.655294 3.455126
Ti 0.848289 3.183370 1.151709
Ti 1.455880 4.655294 8.061961
Ti 0.848289 3.183370 5.758543
Ti 1.455880 4.655294 12.668795
Ti 0.848289 3.183370 10.365378
Ti -2.546554 7.268182 3.455126
Ti -3.154145 5.796258 1.151709
Ti -2.546554 7.268182 8.061961
Ti -3.154145 5.796258 5.758543
Ti -2.546554 7.268182 12.668795
Ti -3.154145 5.796258 10.365378
