54
A
Ti 0.120303 1.999588 5.750108
Ti 1.908887 0.648873 3.450065
Ti 0.120303 1.999588 10.350194
Ti 1.908887 0.648873 8.050151
Ti 0.120303 1.999588 14.950281
Ti 1.908887 0.648873 12.650238
Ti -0.673978 4.648048 5.750108
Ti 1.114606 3.297334 3.450065
Ti -0.673978 4.648048 10.350194
Ti 1.114606 3.297334 8.050151
Ti -0.673978 4.648048 14.950281
Ti 1.114606 3.297334 12.650238
Ti -1.468259 7.296509 5.750108
Ti 0.320325 5.945794 3.450065
Ti -1.468259 7.296509 10.350194
Ti 0.320325 5.945794 8.050151
Ti -1.468259 7.296509 14.950281
Ti 0.320325 5.945794 12.650238
Ti 2.943774 1.999588 10.350194
Ti 4.732357 0.648873 8.050151
Ti 2.943774 1.999588 14.950281
Ti 4.732357 0.648873 12.650238
Ti 2.943774 1.999588 19.550367
Ti 4.732357 0.648873 17.250324
Ti 2.149493 4.648048 10.350194
Ti 3.938076 3.297334 8.050151
Ti 2.149493 4.648048 14.950281
Ti 3.938076 3.297334 12.650238
Ti 2.149493 4.648048 19.550367
Ti 3.938076 3.297334 17.250324
Ti 1.355212 7.296509 10.350194
Ti 3.143795 5.945794 8.050151
Ti 1.355212 7.296509 14.950281
Ti 3.143795 5.945794 12.650238
Ti 1.355212 7.296509 19.550367
Ti 3.143795 5.945794 17.250324
Ti 5.767245 1.999588 14.950281
Ti 7.555828 0.648873 12.650238
Ti 5.767245 1.999588 19.550367
Ti 7.555828 0.648873 17.250324
Ti 5.767245 1.999588 24.150454
Ti 7.555828 0.648873 21.850410
Ti 4.972964 4.648048 14.950281
Ti 6.761547 3.297334 12.650238
Ti 4.972964 4.648048 19.550367
Ti 6.761547 3.297334 17.250324
Ti 4.972964 4.648048 24.150454
Ti 6.761547 3.297334 21.850410
Ti 4.178683 7.296509 14.950281
Ti 5.967266 5.945794 12.650238
Ti 4.178683 7.296509 19.550367
Ti 5.967266 5.945794 17.250324
Ti 4.178683 7.296509 24.150454
Ti 5.967266 5.945794 21.850410
