54
A
Ti 2.011379 2.110361 5.772778
Ti 2.192591 0.442499 3.463667
Ti 2.011379 2.110361 10.391001
Ti 2.192591 0.442499 8.081889
Ti 2.011379 2.110361 15.009223
Ti 2.192591 0.442499 12.700112
Ti 3.287540 4.663220 5.772778
Ti 3.468752 2.995358 3.463667
Ti 3.287540 4.663220 10.391001
Ti 3.468752 2.995358 8.081889
Ti 3.287540 4.663220 15.009223
Ti 3.468752 2.995358 12.700112
Ti 4.563701 7.216079 5.772778
Ti 4.744913 5.548217 3.463667
Ti 4.563701 7.216079 10.391001
Ti 4.744913 5.548217 8.081889
Ti 4.563701 7.216079 15.009223
Ti 4.744913 5.548217 12.700112
Ti 4.939188 2.110361 10.391001
Ti 5.120401 0.442499 8.081889
Ti 4.939188 2.110361 15.009223
Ti 5.120401 0.442499 12.700112
Ti 4.939188 2.110361 19.627446
Ti 5.120401 0.442499 17.318334
Ti 6.215349 4.663220 10.391001
Ti 6.396562 2.995358 8.081889
Ti 6.215349 4.663220 15.009223
Ti 6.396562 2.995358 12.700112
Ti 6.215349 4.663220 19.627446
Ti 6.396562 2.995358 17.318334
Ti 7.491510 7.216079 10.391001
Ti 7.672723 5.548217 8.081889
Ti 7.491510 7.216079 15.009223
Ti 7.672723 5.548217 12.700112
Ti 7.491510 7.216079 19.627446
Ti 7.672723 5.548217 17.318334
Ti 7.866998 2.110361 15.009223
Ti 8.048210 0.442499 12.700112
Ti 7.866998 2.110361 19.627446
Ti 8.048210 0.442499 17.318334
Ti 7.866998 2.110361 24.245668
Ti 8.048210 0.442499 21.936557
Ti 9.143159 4.663220 15.009223
Ti 9.324371 2.995358 12.700112
Ti 9.143159 4.663220 19.627446
Ti 9.324371 2.995358 17.318334
Ti 9.143159 4.663220 24.245668
Ti 9.324371 2.995358 21.936557
Ti 10.419320 7.216079 15.009223
Ti 10.600532 5.548217 12.700112
Ti 10.419320 7.216079 19.627446
Ti 10.600532 5.548217 17.318334
Ti 10.419320 7.216079 24.245668
Ti 10.600532 5.548217 21.936557
