54
A
Ti 0.873985 2.047625 5.759598
Ti 2.065578 0.560816 3.455759
Ti 0.873985 2.047625 10.367276
Ti 2.065578 0.560816 8.063437
Ti 0.873985 2.047625 14.974954
Ti 2.065578 0.560816 12.671115
Ti 0.946400 4.656067 5.759598
Ti 2.137994 3.169258 3.455759
Ti 0.946400 4.656067 10.367276
Ti 2.137994 3.169258 8.063437
Ti 0.946400 4.656067 14.974954
Ti 2.137994 3.169258 12.671115
Ti 1.018816 7.264508 5.759598
Ti 2.210410 5.777699 3.455759
Ti 1.018816 7.264508 10.367276
Ti 2.210410 5.777699 8.063437
Ti 1.018816 7.264508 14.974954
Ti 2.210410 5.777699 12.671115
Ti 3.741132 2.047625 10.367276
Ti 4.932726 0.560816 8.063437
Ti 3.741132 2.047625 14.974954
Ti 4.932726 0.560816 12.671115
Ti 3.741132 2.047625 19.582633
Ti 4.932726 0.560816 17.278793
Ti 3.813548 4.656067 10.367276
Ti 5.005141 3.169258 8.063437
Ti 3.813548 4.656067 14.974954
Ti 5.005141 3.169258 12.671115
Ti 3.813548 4.656067 19.582633
Ti 5.005141 3.169258 17.278793
Ti 3.885963 7.264508 10.367276
Ti 5.077557 5.777699 8.063437
Ti 3.885963 7.264508 14.974954
Ti 5.077557 5.777699 12.671115
Ti 3.885963 7.264508 19.582633
Ti 5.077557 5.777699 17.278793
Ti 6.608279 2.047625 14.974954
Ti 7.799873 0.560816 12.671115
Ti 6.608279 2.047625 19.582633
Ti 7.799873 0.560816 17.278793
Ti 6.608279 2.047625 24.190311
Ti 7.799873 0.560816 21.886472
Ti 6.680695 4.656067 14.974954
Ti 7.872289 3.169258 12.671115
Ti 6.680695 4.656067 19.582633
Ti 7.872289 3.169258 17.278793
Ti 6.680695 4.656067 24.190311
Ti 7.872289 3.169258 21.886472
Ti 6.753111 7.264508 14.974954
Ti 7.944705 5.777699 12.671115
Ti 6.753111 7.264508 19.582633
Ti 7.944705 5.777699 17.278793
Ti 6.753111 7.264508 24.190311
Ti 7.944705 5.777699 21.886472
