54
A
Ti 0.490316 2.023907 5.754853
Ti 1.994060 0.604545 3.452912
Ti 0.490316 2.023907 10.358735
Ti 1.994060 0.604545 8.056794
Ti 0.490316 2.023907 14.962618
Ti 1.994060 0.604545 12.660676
Ti 0.129383 4.652358 5.754853
Ti 1.633128 3.232996 3.452912
Ti 0.129383 4.652358 10.358735
Ti 1.633128 3.232996 8.056794
Ti 0.129383 4.652358 14.962618
Ti 1.633128 3.232996 12.660676
Ti -0.231549 7.280809 5.754853
Ti 1.272195 5.861447 3.452912
Ti -0.231549 7.280809 10.358735
Ti 1.272195 5.861447 8.056794
Ti -0.231549 7.280809 14.962618
Ti 1.272195 5.861447 12.660676
Ti 3.335625 2.023907 10.358735
Ti 4.839369 0.604545 8.056794
Ti 3.335625 2.023907 14.962618
Ti 4.839369 0.604545 12.660676
Ti 3.335625 2.023907 19.566500
Ti 4.839369 0.604545 17.264559
Ti 2.974693 4.652358 10.358735
Ti 4.478437 3.232996 8.056794
Ti 2.974693 4.652358 14.962618
Ti 4.478437 3.232996 12.660676
Ti 2.974693 4.652358 19.566500
Ti 4.478437 3.232996 17.264559
Ti 2.613760 7.280809 10.358735
Ti 4.117504 5.861447 8.056794
Ti 2.613760 7.280809 14.962618
Ti 4.117504 5.861447 12.660676
Ti 2.613760 7.280809 19.566500
Ti 4.117504 5.861447 17.264559
Ti 6.180934 2.023907 14.962618
Ti 7.684678 0.604545 12.660676
Ti 6.180934 2.023907 19.566500
Ti 7.684678 0.604545 17.264559
Ti 6.180934 2.023907 24.170382
Ti 7.684678 0.604545 21.868441
Ti 5.820002 4.652358 14.962618
Ti 7.323746 3.232996 12.660676
Ti 5.820002 4.652358 19.566500
Ti 7.323746 3.232996 17.264559
Ti 5.820002 4.652358 24.170382
Ti 7.323746 3.232996 21.868441
Ti 5.459069 7.280809 14.962618
Ti 6.962813 5.861447 12.660676
Ti 5.459069 7.280809 19.566500
Ti 6.962813 5.861447 17.264559
Ti 5.459069 7.280809 24.170382
Ti 6.962813 5.861447 21.868441
