54
A
Ti -0.068552 2.005044 3.450697
Ti -0.923180 0.638970 1.150232
Ti -0.068552 2.005044 8.051627
Ti -0.923180 0.638970 5.751162
Ti -0.068552 2.005044 12.652557
Ti -0.923180 0.638970 10.352092
Ti -3.888609 4.649058 3.450697
Ti -4.743237 3.282985 1.150232
Ti -3.888609 4.649058 8.051627
Ti -4.743237 3.282985 5.751162
Ti -3.888609 4.649058 12.652557
Ti -4.743237 3.282985 10.352092
Ti -7.708666 7.293072 3.450697
Ti -8.563294 5.926999 1.150232
Ti -7.708666 7.293072 8.051627
Ti -8.563294 5.926999 5.751162
Ti -7.708666 7.293072 12.652557
Ti -8.563294 5.926999 10.352092
Ti 2.759771 2.005044 3.450697
Ti 1.905143 0.638970 1.150232
Ti 2.759771 2.005044 8.051627
Ti 1.905143 0.638970 5.751162
Ti 2.759771 2.005044 12.652557
Ti 1.905143 0.638970 10.352092
Ti -1.060285 4.649058 3.450697
Ti -1.914913 3.282985 1.150232
Ti -1.060285 4.649058 8.051627
Ti -1.914913 3.282985 5.751162
Ti -1.060285 4.649058 12.652557
Ti -1.914913 3.282985 10.352092
Ti -4.880342 7.293072 3.450697
Ti -5.734970 5.926999 1.150232
Ti -4.880342 7.293072 8.051627
Ti -5.734970 5.926999 5.751162
Ti -4.880342 7.293072 12.652557
Ti -5.734970 5.926999 10.352092
Ti 5.588095 2.005044 3.450697
Ti 4.733467 0.638970 1.150232
Ti 5.588095 2.005044 8.051627
Ti 4.733467 0.638970 5.751162
Ti 5.588095 2.005044 12.652557
Ti 4.733467 0.638970 10.352092
Ti 1.768038 4.649058 3.450697
Ti 0.913410 3.282985 1.150232
Ti 1.768038 4.649058 8.051627
Ti 0.913410 3.282985 5.751162
Ti 1.768038 4.649058 12.652557
Ti 0.913410 3.282985 10.352092
Ti -2.052018 7.293072 3.450697
Ti -2.906646 5.926999 1.150232
Ti -2.052018 7.293072 8.051627
Ti -2.906646 5.926999 5.751162
Ti -2.052018 7.293072 12.652557
Ti -2.906646 5.926999 10.352092
