54
A
Ti -0.578816 2.095726 3.461769
Ti -0.783935 0.470472 1.153923
Ti -0.578816 2.095726 8.077461
Ti -0.783935 0.470472 5.769615
Ti -0.578816 2.095726 12.693153
Ti -0.783935 0.470472 10.385307
Ti -4.854817 4.661925 3.461769
Ti -5.059935 3.036671 1.153923
Ti -4.854817 4.661925 8.077461
Ti -5.059935 3.036671 5.769615
Ti -4.854817 4.661925 12.693153
Ti -5.059935 3.036671 10.385307
Ti -9.130817 7.228124 3.461769
Ti -9.335936 5.602870 1.153923
Ti -9.130817 7.228124 8.077461
Ti -9.335936 5.602870 5.769615
Ti -9.130817 7.228124 12.693153
Ti -9.335936 5.602870 10.385307
Ti 2.334435 2.095726 3.461769
Ti 2.129316 0.470472 1.153923
Ti 2.334435 2.095726 8.077461
Ti 2.129316 0.470472 5.769615
Ti 2.334435 2.095726 12.693153
Ti 2.129316 0.470472 10.385307
Ti -1.941566 4.661925 3.461769
Ti -2.146685 3.036671 1.153923
Ti -1.941566 4.661925 8.077461
Ti -2.146685 3.036671 5.769615
Ti -1.941566 4.661925 12.693153
Ti -2.146685 3.036671 10.385307
Ti -6.217567 7.228124 3.461769
Ti -6.422686 5.602870 1.153923
Ti -6.217567 7.228124 8.077461
Ti -6.422686 5.602870 5.769615
Ti -6.217567 7.228124 12.693153
Ti -6.422686 5.602870 10.385307
Ti 5.247685 2.095726 3.461769
Ti 5.042567 0.470472 1.153923
Ti 5.247685 2.095726 8.077461
Ti 5.042567 0.470472 5.769615
Ti 5.247685 2.095726 12.693153
Ti 5.042567 0.470472 10.385307
Ti 0.971685 4.661925 3.461769
Ti 0.766566 3.036671 1.153923
Ti 0.971685 4.661925 8.077461
Ti 0.766566 3.036671 5.769615
Ti 0.971685 4.661925 12.693153
Ti 0.766566 3.036671 10.385307
Ti -3.304316 7.228124 3.461769
Ti -3.509435 5.602870 1.153923
Ti -3.304316 7.228124 8.077461
Ti -3.509435 5.602870 5.769615
Ti -3.304316 7.228124 12.693153
Ti -3.509435 5.602870 10.385307
