54
A
Ti -0.687252 2.112774 3.463983
Ti -0.749702 0.437862 1.154661
Ti -0.687252 2.112774 8.082627
Ti -0.749702 0.437862 5.773305
Ti -0.687252 2.112774 12.701272
Ti -0.749702 0.437862 10.391950
Ti -5.054441 4.663409 3.463983
Ti -5.116892 2.988498 1.154661
Ti -5.054441 4.663409 8.082627
Ti -5.116892 2.988498 5.773305
Ti -5.054441 4.663409 12.701272
Ti -5.116892 2.988498 10.391950
Ti -9.421631 7.214045 3.463983
Ti -9.484081 5.539134 1.154661
Ti -9.421631 7.214045 8.082627
Ti -9.484081 5.539134 5.773305
Ti -9.421631 7.214045 12.701272
Ti -9.484081 5.539134 10.391950
Ti 2.242984 2.112774 3.463983
Ti 2.180534 0.437862 1.154661
Ti 2.242984 2.112774 8.082627
Ti 2.180534 0.437862 5.773305
Ti 2.242984 2.112774 12.701272
Ti 2.180534 0.437862 10.391950
Ti -2.124205 4.663409 3.463983
Ti -2.186656 2.988498 1.154661
Ti -2.124205 4.663409 8.082627
Ti -2.186656 2.988498 5.773305
Ti -2.124205 4.663409 12.701272
Ti -2.186656 2.988498 10.391950
Ti -6.491395 7.214045 3.463983
Ti -6.553846 5.539134 1.154661
Ti -6.491395 7.214045 8.082627
Ti -6.553846 5.539134 5.773305
Ti -6.491395 7.214045 12.701272
Ti -6.553846 5.539134 10.391950
Ti 5.173220 2.112774 3.463983
Ti 5.110770 0.437862 1.154661
Ti 5.173220 2.112774 8.082627
Ti 5.110770 0.437862 5.773305
Ti 5.173220 2.112774 12.701272
Ti 5.110770 0.437862 10.391950
Ti 0.806031 4.663409 3.463983
Ti 0.743580 2.988498 1.154661
Ti 0.806031 4.663409 8.082627
Ti 0.743580 2.988498 5.773305
Ti 0.806031 4.663409 12.701272
Ti 0.743580 2.988498 10.391950
Ti -3.561159 7.214045 3.463983
Ti -3.623610 5.539134 1.154661
Ti -3.561159 7.214045 8.082627
Ti -3.623610 5.539134 5.773305
Ti -3.561159 7.214045 12.701272
Ti -3.623610 5.539134 10.391950
