54
A
Ti -0.726494 2.118774 3.464774
Ti -0.736961 0.426304 1.154925
Ti -0.726494 2.118774 8.084473
Ti -0.736961 0.426304 5.774623
Ti -0.726494 2.118774 12.704171
Ti -0.736961 0.426304 10.394322
Ti -5.126251 4.663851 3.464774
Ti -5.136718 2.971381 1.154925
Ti -5.126251 4.663851 8.084473
Ti -5.136718 2.971381 5.774623
Ti -5.126251 4.663851 12.704171
Ti -5.136718 2.971381 10.394322
Ti -9.526008 7.208929 3.464774
Ti -9.536475 5.516459 1.154925
Ti -9.526008 7.208929 8.084473
Ti -9.536475 5.516459 5.774623
Ti -9.526008 7.208929 12.704171
Ti -9.536475 5.516459 10.394322
Ti 2.209808 2.118774 3.464774
Ti 2.199341 0.426304 1.154925
Ti 2.209808 2.118774 8.084473
Ti 2.199341 0.426304 5.774623
Ti 2.209808 2.118774 12.704171
Ti 2.199341 0.426304 10.394322
Ti -2.189949 4.663851 3.464774
Ti -2.200416 2.971381 1.154925
Ti -2.189949 4.663851 8.084473
Ti -2.200416 2.971381 5.774623
Ti -2.189949 4.663851 12.704171
Ti -2.200416 2.971381 10.394322
Ti -6.589706 7.208929 3.464774
Ti -6.600173 5.516459 1.154925
Ti -6.589706 7.208929 8.084473
Ti -6.600173 5.516459 5.774623
Ti -6.589706 7.208929 12.704171
Ti -6.600173 5.516459 10.394322
Ti 5.146110 2.118774 3.464774
Ti 5.135644 0.426304 1.154925
Ti 5.146110 2.118774 8.084473
Ti 5.135644 0.426304 5.774623
Ti 5.146110 2.118774 12.704171
Ti 5.135644 0.426304 10.394322
Ti 0.746353 4.663851 3.464774
Ti 0.735886 2.971381 1.154925
Ti 0.746353 4.663851 8.084473
Ti 0.735886 2.971381 5.774623
Ti 0.746353 4.663851 12.704171
Ti 0.735886 2.971381 10.394322
Ti -3.653404 7.208929 3.464774
Ti -3.663871 5.516459 1.154925
Ti -3.653404 7.208929 8.084473
Ti -3.663871 5.516459 5.774623
Ti -3.653404 7.208929 12.704171
Ti -3.663871 5.516459 10.394322
