54
A
Ti -0.563499 2.093262 3.461453
Ti -0.788651 0.475161 1.153818
Ti -0.563499 2.093262 8.076723
Ti -0.788651 0.475161 5.769088
Ti -0.563499 2.093262 12.691993
Ti -0.788651 0.475161 10.384358
Ti -4.826472 4.661684 3.461453
Ti -5.051625 3.043583 1.153818
Ti -4.826472 4.661684 8.076723
Ti -5.051625 3.043583 5.769088
Ti -4.826472 4.661684 12.691993
Ti -5.051625 3.043583 10.384358
Ti -9.089446 7.230106 3.461453
Ti -9.314599 5.612005 1.153818
Ti -9.089446 7.230106 8.076723
Ti -9.314599 5.612005 5.769088
Ti -9.089446 7.230106 12.691993
Ti -9.314599 5.612005 10.384358
Ti 2.347325 2.093262 3.461453
Ti 2.122173 0.475161 1.153818
Ti 2.347325 2.093262 8.076723
Ti 2.122173 0.475161 5.769088
Ti 2.347325 2.093262 12.691993
Ti 2.122173 0.475161 10.384358
Ti -1.915648 4.661684 3.461453
Ti -2.140801 3.043583 1.153818
Ti -1.915648 4.661684 8.076723
Ti -2.140801 3.043583 5.769088
Ti -1.915648 4.661684 12.691993
Ti -2.140801 3.043583 10.384358
Ti -6.178622 7.230106 3.461453
Ti -6.403775 5.612005 1.153818
Ti -6.178622 7.230106 8.076723
Ti -6.403775 5.612005 5.769088
Ti -6.178622 7.230106 12.691993
Ti -6.403775 5.612005 10.384358
Ti 5.258150 2.093262 3.461453
Ti 5.032997 0.475161 1.153818
Ti 5.258150 2.093262 8.076723
Ti 5.032997 0.475161 5.769088
Ti 5.258150 2.093262 12.691993
Ti 5.032997 0.475161 10.384358
Ti 0.995176 4.661684 3.461453
Ti 0.770023 3.043583 1.153818
Ti 0.995176 4.661684 8.076723
Ti 0.770023 3.043583 5.769088
Ti 0.995176 4.661684 12.691993
Ti 0.770023 3.043583 10.384358
Ti -3.267798 7.230106 3.461453
Ti -3.492951 5.612005 1.153818
Ti -3.267798 7.230106 8.076723
Ti -3.492951 5.612005 5.769088
Ti -3.267798 7.230106 12.691993
Ti -3.492951 5.612005 10.384358
