54
A
Ti 0.852311 2.046323 5.759334
Ti 2.061963 0.563230 3.455601
Ti 0.852311 2.046323 10.366802
Ti 2.061963 0.563230 8.063068
Ti 0.852311 2.046323 14.974269
Ti 2.061963 0.563230 12.670535
Ti 0.900652 4.655876 5.759334
Ti 2.110304 3.172783 3.455601
Ti 0.900652 4.655876 10.366802
Ti 2.110304 3.172783 8.063068
Ti 0.900652 4.655876 14.974269
Ti 2.110304 3.172783 12.670535
Ti 0.948993 7.265429 5.759334
Ti 2.158645 5.782336 3.455601
Ti 0.948993 7.265429 10.366802
Ti 2.158645 5.782336 8.063068
Ti 0.948993 7.265429 14.974269
Ti 2.158645 5.782336 12.670535
Ti 3.718246 2.046323 10.366802
Ti 4.927898 0.563230 8.063068
Ti 3.718246 2.046323 14.974269
Ti 4.927898 0.563230 12.670535
Ti 3.718246 2.046323 19.581736
Ti 4.927898 0.563230 17.278003
Ti 3.766586 4.655876 10.366802
Ti 4.976238 3.172783 8.063068
Ti 3.766586 4.655876 14.974269
Ti 4.976238 3.172783 12.670535
Ti 3.766586 4.655876 19.581736
Ti 4.976238 3.172783 17.278003
Ti 3.814927 7.265429 10.366802
Ti 5.024579 5.782336 8.063068
Ti 3.814927 7.265429 14.974269
Ti 5.024579 5.782336 12.670535
Ti 3.814927 7.265429 19.581736
Ti 5.024579 5.782336 17.278003
Ti 6.584180 2.046323 14.974269
Ti 7.793832 0.563230 12.670535
Ti 6.584180 2.046323 19.581736
Ti 7.793832 0.563230 17.278003
Ti 6.584180 2.046323 24.189204
Ti 7.793832 0.563230 21.885470
Ti 6.632520 4.655876 14.974269
Ti 7.842172 3.172783 12.670535
Ti 6.632520 4.655876 19.581736
Ti 7.842172 3.172783 17.278003
Ti 6.632520 4.655876 24.189204
Ti 7.842172 3.172783 21.885470
Ti 6.680861 7.265429 14.974269
Ti 7.890513 5.782336 12.670535
Ti 6.680861 7.265429 19.581736
Ti 7.890513 5.782336 17.278003
Ti 6.680861 7.265429 24.189204
Ti 7.890513 5.782336 21.885470
