54
A
Ti -0.047873 2.000954 3.450223
Ti -0.927959 0.646395 1.150074
Ti -0.047873 2.000954 8.050520
Ti -0.927959 0.646395 5.750372
Ti -0.047873 2.000954 12.650817
Ti -0.927959 0.646395 10.350669
Ti -3.848389 4.648303 3.450223
Ti -4.728476 3.293744 1.150074
Ti -3.848389 4.648303 8.050520
Ti -4.728476 3.293744 5.750372
Ti -3.848389 4.648303 12.650817
Ti -4.728476 3.293744 10.350669
Ti -7.648905 7.295653 3.450223
Ti -8.528992 5.941093 1.150074
Ti -7.648905 7.295653 8.050520
Ti -8.528992 5.941093 5.750372
Ti -7.648905 7.295653 12.650817
Ti -8.528992 5.941093 10.350669
Ti 2.776811 2.000954 3.450223
Ti 1.896725 0.646395 1.150074
Ti 2.776811 2.000954 8.050520
Ti 1.896725 0.646395 5.750372
Ti 2.776811 2.000954 12.650817
Ti 1.896725 0.646395 10.350669
Ti -1.023705 4.648303 3.450223
Ti -1.903792 3.293744 1.150074
Ti -1.023705 4.648303 8.050520
Ti -1.903792 3.293744 5.750372
Ti -1.023705 4.648303 12.650817
Ti -1.903792 3.293744 10.350669
Ti -4.824221 7.295653 3.450223
Ti -5.704308 5.941093 1.150074
Ti -4.824221 7.295653 8.050520
Ti -5.704308 5.941093 5.750372
Ti -4.824221 7.295653 12.650817
Ti -5.704308 5.941093 10.350669
Ti 5.601495 2.000954 3.450223
Ti 4.721408 0.646395 1.150074
Ti 5.601495 2.000954 8.050520
Ti 4.721408 0.646395 5.750372
Ti 5.601495 2.000954 12.650817
Ti 4.721408 0.646395 10.350669
Ti 1.800979 4.648303 3.450223
Ti 0.920892 3.293744 1.150074
Ti 1.800979 4.648303 8.050520
Ti 0.920892 3.293744 5.750372
Ti 1.800979 4.648303 12.650817
Ti 0.920892 3.293744 10.350669
Ti -1.999537 7.295653 3.450223
Ti -2.879624 5.941093 1.150074
Ti -1.999537 7.295653 8.050520
Ti -2.879624 5.941093 5.750372
Ti -1.999537 7.295653 12.650817
Ti -2.879624 5.941093 10.350669
