54
A
Ti 2.154947 2.117578 5.774360
Ti 2.200752 0.428612 3.464616
Ti 2.154947 2.117578 10.393848
Ti 2.200752 0.428612 8.084104
Ti 2.154947 2.117578 15.013335
Ti 2.200752 0.428612 12.703592
Ti 3.575557 4.663767 5.774360
Ti 3.621363 2.974801 3.464616
Ti 3.575557 4.663767 10.393848
Ti 3.621363 2.974801 8.084104
Ti 3.575557 4.663767 15.013335
Ti 3.621363 2.974801 12.703592
Ti 4.996168 7.209956 5.774360
Ti 5.041973 5.520990 3.464616
Ti 4.996168 7.209956 10.393848
Ti 5.041973 5.520990 8.084104
Ti 4.996168 7.209956 15.013335
Ti 5.041973 5.520990 12.703592
Ti 5.090036 2.117578 10.393848
Ti 5.135841 0.428612 8.084104
Ti 5.090036 2.117578 15.013335
Ti 5.135841 0.428612 12.703592
Ti 5.090036 2.117578 19.632823
Ti 5.135841 0.428612 17.323079
Ti 6.510646 4.663767 10.393848
Ti 6.556452 2.974801 8.084104
Ti 6.510646 4.663767 15.013335
Ti 6.556452 2.974801 12.703592
Ti 6.510646 4.663767 19.632823
Ti 6.556452 2.974801 17.323079
Ti 7.931257 7.209956 10.393848
Ti 7.977062 5.520990 8.084104
Ti 7.931257 7.209956 15.013335
Ti 7.977062 5.520990 12.703592
Ti 7.931257 7.209956 19.632823
Ti 7.977062 5.520990 17.323079
Ti 8.025125 2.117578 15.013335
Ti 8.070930 0.428612 12.703592
Ti 8.025125 2.117578 19.632823
Ti 8.070930 0.428612 17.323079
Ti 8.025125 2.117578 24.252311
Ti 8.070930 0.428612 21.942567
Ti 9.445735 4.663767 15.013335
Ti 9.491541 2.974801 12.703592
Ti 9.445735 4.663767 19.632823
Ti 9.491541 2.974801 17.323079
Ti 9.445735 4.663767 24.252311
Ti 9.491541 2.974801 21.942567
Ti 10.866345 7.209956 15.013335
Ti 10.912151 5.520990 12.703592
Ti 10.866345 7.209956 19.632823
Ti 10.912151 5.520990 17.323079
Ti 10.866345 7.209956 24.252311
Ti 10.912151 5.520990 21.942567
