54
A
Ti 0.181024 2.003682 5.750899
Ti 1.924030 0.641443 3.450539
Ti 0.181024 2.003682 10.351618
Ti 1.924030 0.641443 8.051258
Ti 0.181024 2.003682 14.952337
Ti 1.924030 0.641443 12.651977
Ti -0.541033 4.648808 5.750899
Ti 1.201974 3.286569 3.450539
Ti -0.541033 4.648808 10.351618
Ti 1.201974 3.286569 8.051258
Ti -0.541033 4.648808 14.952337
Ti 1.201974 3.286569 12.651977
Ti -1.263089 7.293934 5.750899
Ti 0.479918 5.931695 3.450539
Ti -1.263089 7.293934 10.351618
Ti 0.479918 5.931695 8.051258
Ti -1.263089 7.293934 14.952337
Ti 0.479918 5.931695 12.651977
Ti 3.008134 2.003682 10.351618
Ti 4.751141 0.641443 8.051258
Ti 3.008134 2.003682 14.952337
Ti 4.751141 0.641443 12.651977
Ti 3.008134 2.003682 19.553056
Ti 4.751141 0.641443 17.252696
Ti 2.286078 4.648808 10.351618
Ti 4.029085 3.286569 8.051258
Ti 2.286078 4.648808 14.952337
Ti 4.029085 3.286569 12.651977
Ti 2.286078 4.648808 19.553056
Ti 4.029085 3.286569 17.252696
Ti 1.564022 7.293934 10.351618
Ti 3.307028 5.931695 8.051258
Ti 1.564022 7.293934 14.952337
Ti 3.307028 5.931695 12.651977
Ti 1.564022 7.293934 19.553056
Ti 3.307028 5.931695 17.252696
Ti 5.835245 2.003682 14.952337
Ti 7.578251 0.641443 12.651977
Ti 5.835245 2.003682 19.553056
Ti 7.578251 0.641443 17.252696
Ti 5.835245 2.003682 24.153775
Ti 7.578251 0.641443 21.853415
Ti 5.113188 4.648808 14.952337
Ti 6.856195 3.286569 12.651977
Ti 5.113188 4.648808 19.553056
Ti 6.856195 3.286569 17.252696
Ti 5.113188 4.648808 24.153775
Ti 6.856195 3.286569 21.853415
Ti 4.391132 7.293934 14.952337
Ti 6.134139 5.931695 12.651977
Ti 4.391132 7.293934 19.553056
Ti 6.134139 5.931695 17.252696
Ti 4.391132 7.293934 24.153775
Ti 6.134139 5.931695 21.853415
