54
A
Ti -0.718624 2.117578 3.464616
Ti -0.739531 0.428612 1.154872
Ti -0.718624 2.117578 8.084104
Ti -0.739531 0.428612 5.774360
Ti -0.718624 2.117578 12.703592
Ti -0.739531 0.428612 10.393848
Ti -5.111868 4.663767 3.464616
Ti -5.132774 2.974801 1.154872
Ti -5.111868 4.663767 8.084104
Ti -5.132774 2.974801 5.774360
Ti -5.111868 4.663767 12.703592
Ti -5.132774 2.974801 10.393848
Ti -9.505111 7.209956 3.464616
Ti -9.526018 5.520990 1.154872
Ti -9.505111 7.209956 8.084104
Ti -9.526018 5.520990 5.774360
Ti -9.505111 7.209956 12.703592
Ti -9.526018 5.520990 10.393848
Ti 2.216465 2.117578 3.464616
Ti 2.195558 0.428612 1.154872
Ti 2.216465 2.117578 8.084104
Ti 2.195558 0.428612 5.774360
Ti 2.216465 2.117578 12.703592
Ti 2.195558 0.428612 10.393848
Ti -2.176779 4.663767 3.464616
Ti -2.197685 2.974801 1.154872
Ti -2.176779 4.663767 8.084104
Ti -2.197685 2.974801 5.774360
Ti -2.176779 4.663767 12.703592
Ti -2.197685 2.974801 10.393848
Ti -6.570022 7.209956 3.464616
Ti -6.590929 5.520990 1.154872
Ti -6.570022 7.209956 8.084104
Ti -6.590929 5.520990 5.774360
Ti -6.570022 7.209956 12.703592
Ti -6.590929 5.520990 10.393848
Ti 5.151554 2.117578 3.464616
Ti 5.130647 0.428612 1.154872
Ti 5.151554 2.117578 8.084104
Ti 5.130647 0.428612 5.774360
Ti 5.151554 2.117578 12.703592
Ti 5.130647 0.428612 10.393848
Ti 0.758310 4.663767 3.464616
Ti 0.737403 2.974801 1.154872
Ti 0.758310 4.663767 8.084104
Ti 0.737403 2.974801 5.774360
Ti 0.758310 4.663767 12.703592
Ti 0.737403 2.974801 10.393848
Ti -3.634933 7.209956 3.464616
Ti -3.655840 5.520990 1.154872
Ti -3.634933 7.209956 8.084104
Ti -3.655840 5.520990 5.774360
Ti -3.634933 7.209956 12.703592
Ti -3.655840 5.520990 10.393848
