54
A
Ti -0.287964 2.046323 3.455601
Ti -0.868077 0.563230 1.151867
Ti -0.287964 2.046323 8.063068
Ti -0.868077 0.563230 5.759334
Ti -0.287964 2.046323 12.670535
Ti -0.868077 0.563230 10.366802
Ti -4.309939 4.655876 3.455601
Ti -4.890051 3.172783 1.151867
Ti -4.309939 4.655876 8.063068
Ti -4.890051 3.172783 5.759334
Ti -4.309939 4.655876 12.670535
Ti -4.890051 3.172783 10.366802
Ti -8.331913 7.265429 3.455601
Ti -8.912026 5.782336 1.151867
Ti -8.331913 7.265429 8.063068
Ti -8.912026 5.782336 5.759334
Ti -8.331913 7.265429 12.670535
Ti -8.912026 5.782336 10.366802
Ti 2.577970 2.046323 3.455601
Ti 1.997858 0.563230 1.151867
Ti 2.577970 2.046323 8.063068
Ti 1.997858 0.563230 5.759334
Ti 2.577970 2.046323 12.670535
Ti 1.997858 0.563230 10.366802
Ti -1.444005 4.655876 3.455601
Ti -2.024117 3.172783 1.151867
Ti -1.444005 4.655876 8.063068
Ti -2.024117 3.172783 5.759334
Ti -1.444005 4.655876 12.670535
Ti -2.024117 3.172783 10.366802
Ti -5.465979 7.265429 3.455601
Ti -6.046092 5.782336 1.151867
Ti -5.465979 7.265429 8.063068
Ti -6.046092 5.782336 5.759334
Ti -5.465979 7.265429 12.670535
Ti -6.046092 5.782336 10.366802
Ti 5.443904 2.046323 3.455601
Ti 4.863792 0.563230 1.151867
Ti 5.443904 2.046323 8.063068
Ti 4.863792 0.563230 5.759334
Ti 5.443904 2.046323 12.670535
Ti 4.863792 0.563230 10.366802
Ti 1.421930 4.655876 3.455601
Ti 0.841817 3.172783 1.151867
Ti 1.421930 4.655876 8.063068
Ti 0.841817 3.172783 5.759334
Ti 1.421930 4.655876 12.670535
Ti 0.841817 3.172783 10.366802
Ti -2.600045 7.265429 3.455601
Ti -3.180158 5.782336 1.151867
Ti -2.600045 7.265429 8.063068
Ti -3.180158 5.782336 5.759334
Ti -2.600045 7.265429 12.670535
Ti -3.180158 5.782336 10.366802
