54
A
Ti 0.895700 2.048925 5.759861
Ti 2.069151 0.558405 3.455917
Ti 0.895700 2.048925 10.367751
Ti 2.069151 0.558405 8.063806
Ti 0.895700 2.048925 14.975640
Ti 2.069151 0.558405 12.671695
Ti 0.992190 4.656255 5.759861
Ti 2.165642 3.165734 3.455917
Ti 0.992190 4.656255 10.367751
Ti 2.165642 3.165734 8.063806
Ti 0.992190 4.656255 14.975640
Ti 2.165642 3.165734 12.671695
Ti 1.088681 7.263585 5.759861
Ti 2.262132 5.773064 3.455917
Ti 1.088681 7.263585 10.367751
Ti 2.262132 5.773064 8.063806
Ti 1.088681 7.263585 14.975640
Ti 2.262132 5.773064 12.671695
Ti 3.764061 2.048925 10.367751
Ti 4.937512 0.558405 8.063806
Ti 3.764061 2.048925 14.975640
Ti 4.937512 0.558405 12.671695
Ti 3.764061 2.048925 19.583529
Ti 4.937512 0.558405 17.279584
Ti 3.860551 4.656255 10.367751
Ti 5.034002 3.165734 8.063806
Ti 3.860551 4.656255 14.975640
Ti 5.034002 3.165734 12.671695
Ti 3.860551 4.656255 19.583529
Ti 5.034002 3.165734 17.279584
Ti 3.957042 7.263585 10.367751
Ti 5.130493 5.773064 8.063806
Ti 3.957042 7.263585 14.975640
Ti 5.130493 5.773064 12.671695
Ti 3.957042 7.263585 19.583529
Ti 5.130493 5.773064 17.279584
Ti 6.632421 2.048925 14.975640
Ti 7.805873 0.558405 12.671695
Ti 6.632421 2.048925 19.583529
Ti 7.805873 0.558405 17.279584
Ti 6.632421 2.048925 24.191418
Ti 7.805873 0.558405 21.887473
Ti 6.728912 4.656255 14.975640
Ti 7.902363 3.165734 12.671695
Ti 6.728912 4.656255 19.583529
Ti 7.902363 3.165734 17.279584
Ti 6.728912 4.656255 24.191418
Ti 7.902363 3.165734 21.887473
Ti 6.825402 7.263585 14.975640
Ti 7.998854 5.773064 12.671695
Ti 6.825402 7.263585 19.583529
Ti 7.998854 5.773064 17.279584
Ti 6.825402 7.263585 24.191418
Ti 7.998854 5.773064 21.887473
