108
A
Zn 0.000000 0.000000 0.000000
O 0.000000 -0.000000 2.106000
Zn -1.489167 1.489167 -2.106000
O -1.489167 1.489167 0.000000
Zn 0.000000 0.000000 4.212000
O 0.000000 -0.000000 6.318000
Zn -1.489167 1.489167 2.106000
O -1.489167 1.489167 4.212000
Zn 0.000000 0.000000 8.424000
O 0.000000 -0.000000 10.530000
Zn -1.489167 1.489167 6.318000
O -1.489167 1.489167 8.424000
Zn -2.978334 2.978334 -4.212000
O -2.978334 2.978334 -2.106000
Zn -4.467501 4.467501 -6.318000
O -4.467501 4.467501 -4.212000
Zn -2.978334 2.978334 -0.000000
O -2.978334 2.978334 2.106000
Zn -4.467501 4.467501 -2.106000
O -4.467501 4.467501 -0.000000
Zn -2.978334 2.978334 4.212000
O -2.978334 2.978334 6.318000
Zn -4.467501 4.467501 2.106000
O -4.467501 4.467501 4.212000
Zn -5.956668 5.956668 -8.424000
O -5.956668 5.956668 -6.318000
Zn -7.445834 7.445834 -10.530000
O -7.445834 7.445834 -8.424000
Zn -5.956668 5.956668 -4.212000
O -5.956668 5.956668 -2.106000
Zn -7.445834 7.445834 -6.318000
O -7.445834 7.445834 -4.212000
Zn -5.956668 5.956668 -0.000000
O -5.956668 5.956668 2.106000
Zn -7.445834 7.445834 -2.106000
O -7.445834 7.445834 -0.000000
Zn 2.978334 0.000000 0.000000
O 2.978334 -0.000000 2.106000
Zn 1.489167 1.489167 -2.106000
O 1.489167 1.489167 0.000000
Zn 2.978334 0.000000 4.212000
O 2.978334 -0.000000 6.318000
Zn 1.489167 1.489167 2.106000
O 1.489167 1.489167 4.212000
Zn 2.978334 0.000000 8.424000
O 2.978334 -0.000000 10.530000
Zn 1.489167 1.489167 6.318000
O 1.489167 1.489167 8.424000
Zn -0.000000 2.978334 -4.212000
O 0.000000 2.978334 -2.106000
Zn -1.489167 4.467501 -6.318000
O -1.489167 4.467501 -4.212000
Zn -0.000000 2.978334 0.000000
O 0.000000 2.978334 2.106000
Zn -1.489167 4.467501 -2.106000
O -1.489167 4.467501 0.000000
Zn -0.000000 2.978334 4.212000
O 0.000000 2.978334 6.318000
Zn -1.489167 4.467501 2.106000
O -1.489167 4.467501 4.212000
Zn -2.978334 5.956668 -8.424000
O -2.978334 5.956668 -6.318000
Zn -4.467501 7.445834 -10.530000
O -4.467501 7.445834 -8.424000
Zn -2.978334 5.956668 -4.212000
O -2.978334 5.956668 -2.106000
Zn -4.467501 7.445834 -6.318000
O -4.467501 7.445834 -4.212000
Zn -2.978334 5.956668 0.000000
O -2.978334 5.956668 2.106000
Zn -4.467501 7.445834 -2.106000
O -4.467501 7.445834 0.000000
Zn 5.956668 0.000000 0.000000
O 5.956668 -0.000000 2.106000
Zn 4.467501 1.489167 -2.106000
O 4.467501 1.489167 0.000000
Zn 5.956668 0.000000 4.212000
O 5.956668 -0.000000 6.318000
Zn 4.467501 1.489167 2.106000
O 4.467501 1.489167 4.212000
Zn 5.956668 0.000000 8.424000
O 5.956668 -0.000000 10.530000
Zn 4.467501 1.489167 6.318000
O 4.467501 1.489167 8.424000
Zn 2.978334 2.978334 -4.212000
O 2.978334 2.978334 -2.106000
Zn 1.489167 4.467501 -6.318000
O 1.489167 4.467501 -4.212000
Zn 2.978334 2.978334 0.000000
O 2.978334 2.978334 2.106000
Zn 1.489167 4.467501 -2.106000
O 1.489167 4.467501 0.000000
Zn 2.978334 2.978334 4.212000
O 2.978334 2.978334 6.318000
Zn 1.489167 4.467501 2.106000
O 1.489167 4.467501 4.212000
Zn -0.000000 5.956668 -8.424000
O -0.000000 5.956668 -6.318000
Zn -1.489167 7.445834 -10.530000
O -1.489167 7.445834 -8.424000
Zn -0.000000 5.956668 -4.212000
O -0.000000 5.956668 -2.106000
Zn -1.489167 7.445834 -6.318000
O -1.489167 7.445834 -4.212000
Zn -0.000000 5.956668 0.000000
O -0.000000 5.956668 2.106000
Zn -1.489167 7.445834 -2.106000
O -1.489167 7.445834 0.000000
