108
A
Zn -1.961489 2.259450 1.051933
O -1.961489 2.259450 -1.274581
Zn -0.732592 0.684405 2.368030
O -0.732592 0.684405 0.041516
Zn -1.961489 2.259450 5.472862
O -1.961489 2.259450 3.146348
Zn -0.732592 0.684405 6.788959
O -0.732592 0.684405 4.462445
Zn -1.961489 2.259450 9.893791
O -1.961489 2.259450 7.567277
Zn -0.732592 0.684405 11.209888
O -0.732592 0.684405 8.883374
Zn -4.655570 5.203305 -2.275547
O -4.655570 5.203305 -4.602061
Zn -3.426673 3.628260 -0.959450
O -3.426673 3.628260 -3.285964
Zn -4.655570 5.203305 2.145382
O -4.655570 5.203305 -0.181132
Zn -3.426673 3.628260 3.461479
O -3.426673 3.628260 1.134965
Zn -4.655570 5.203305 6.566311
O -4.655570 5.203305 4.239797
Zn -3.426673 3.628260 7.882408
O -3.426673 3.628260 5.555894
Zn -7.349651 8.147160 -5.603027
O -7.349651 8.147160 -7.929541
Zn -6.120755 6.572115 -4.286930
O -6.120755 6.572115 -6.613444
Zn -7.349651 8.147160 -1.182098
O -7.349651 8.147160 -3.508612
Zn -6.120755 6.572115 0.133999
O -6.120755 6.572115 -2.192515
Zn -7.349651 8.147160 3.238831
O -7.349651 8.147160 0.912317
Zn -6.120755 6.572115 4.554928
O -6.120755 6.572115 2.228414
Zn 1.073790 2.259450 1.051933
O 1.073790 2.259450 -1.274581
Zn 2.302687 0.684405 2.368030
O 2.302687 0.684405 0.041516
Zn 1.073790 2.259450 5.472862
O 1.073790 2.259450 3.146348
Zn 2.302687 0.684405 6.788959
O 2.302687 0.684405 4.462445
Zn 1.073790 2.259450 9.893791
O 1.073790 2.259450 7.567277
Zn 2.302687 0.684405 11.209888
O 2.302687 0.684405 8.883374
Zn -1.620292 5.203305 -2.275547
O -1.620292 5.203305 -4.602061
Zn -0.391395 3.628260 -0.959450
O -0.391395 3.628260 -3.285964
Zn -1.620292 5.203305 2.145382
O -1.620292 5.203305 -0.181132
Zn -0.391395 3.628260 3.461479
O -0.391395 3.628260 1.134965
Zn -1.620292 5.203305 6.566311
O -1.620292 5.203305 4.239797
Zn -0.391395 3.628260 7.882408
O -0.391395 3.628260 5.555894
Zn -4.314373 8.147160 -5.603027
O -4.314373 8.147160 -7.929541
Zn -3.085476 6.572115 -4.286930
O -3.085476 6.572115 -6.613444
Zn -4.314373 8.147160 -1.182098
O -4.314373 8.147160 -3.508612
Zn -3.085476 6.572115 0.133999
O -3.085476 6.572115 -2.192515
Zn -4.314373 8.147160 3.238831
O -4.314373 8.147160 0.912317
Zn -3.085476 6.572115 4.554928
O -3.085476 6.572115 2.228414
Zn 4.109068 2.259450 1.051933
O 4.109068 2.259450 -1.274581
Zn 5.337965 0.684405 2.368030
O 5.337965 0.684405 0.041516
Zn 4.109068 2.259450 5.472862
O 4.109068 2.259450 3.146348
Zn 5.337965 0.684405 6.788959
O 5.337965 0.684405 4.462445
Zn 4.109068 2.259450 9.893791
O 4.109068 2.259450 7.567277
Zn 5.337965 0.684405 11.209888
O 5.337965 0.684405 8.883374
Zn 1.414987 5.203305 -2.275547
O 1.414987 5.203305 -4.602061
Zn 2.643884 3.628260 -0.959450
O 2.643884 3.628260 -3.285964
Zn 1.414987 5.203305 2.145382
O 1.414987 5.203305 -0.181132
Zn 2.643884 3.628260 3.461479
O 2.643884 3.628260 1.134965
Zn 1.414987 5.203305 6.566311
O 1.414987 5.203305 4.239797
Zn 2.643884 3.628260 7.882408
O 2.643884 3.628260 5.555894
Zn -1.279094 8.147160 -5.603027
O -1.279094 8.147160 -7.929541
Zn -0.050197 6.572115 -4.286930
O -0.050197 6.572115 -6.613444
Zn -1.279094 8.147160 -1.182098
O -1.279094 8.147160 -3.508612
Zn -0.050197 6.572115 0.133999
O -0.050197 6.572115 -2.192515
Zn -1.279094 8.147160 3.238831
O -1.279094 8.147160 0.912317
Zn -0.050197 6.572115 4.554928
O -0.050197 6.572115 2.228414
