108
A
Zn -2.053792 2.251018 3.301538
O -2.053792 2.251018 1.049748
Zn -0.735040 0.704330 1.125895
O -0.735040 0.704330 3.225391
Zn -2.053792 2.251018 7.652824
O -2.053792 2.251018 5.401034
Zn -0.735040 0.704330 5.477181
O -0.735040 0.704330 7.576677
Zn -2.053792 2.251018 12.004110
O -2.053792 2.251018 9.752320
Zn -0.735040 0.704330 9.828467
O -0.735040 0.704330 11.927963
Zn -4.842624 5.206366 3.301538
O -4.842624 5.206366 1.049748
Zn -3.523872 3.659678 1.125895
O -3.523872 3.659678 3.225391
Zn -4.842624 5.206366 7.652824
O -4.842624 5.206366 5.401034
Zn -3.523872 3.659678 5.477181
O -3.523872 3.659678 7.576677
Zn -4.842624 5.206366 12.004110
O -4.842624 5.206366 9.752320
Zn -3.523872 3.659678 9.828467
O -3.523872 3.659678 11.927963
Zn -7.631456 8.161714 3.301538
O -7.631456 8.161714 1.049748
Zn -6.312704 6.615026 1.125895
O -6.312704 6.615026 3.225391
Zn -7.631456 8.161714 7.652824
O -7.631456 8.161714 5.401034
Zn -6.312704 6.615026 5.477181
O -6.312704 6.615026 7.576677
Zn -7.631456 8.161714 12.004110
O -7.631456 8.161714 9.752320
Zn -6.312704 6.615026 9.828467
O -6.312704 6.615026 11.927963
Zn 0.962505 2.251018 3.301538
O 0.962505 2.251018 1.049748
Zn 2.281257 0.704330 1.125895
O 2.281257 0.704330 3.225391
Zn 0.962505 2.251018 7.652824
O 0.962505 2.251018 5.401034
Zn 2.281257 0.704330 5.477181
O 2.281257 0.704330 7.576677
Zn 0.962505 2.251018 12.004110
O 0.962505 2.251018 9.752320
Zn 2.281257 0.704330 9.828467
O 2.281257 0.704330 11.927963
Zn -1.826327 5.206366 3.301538
O -1.826327 5.206366 1.049748
Zn -0.507575 3.659678 1.125895
O -0.507575 3.659678 3.225391
Zn -1.826327 5.206366 7.652824
O -1.826327 5.206366 5.401034
Zn -0.507575 3.659678 5.477181
O -0.507575 3.659678 7.576677
Zn -1.826327 5.206366 12.004110
O -1.826327 5.206366 9.752320
Zn -0.507575 3.659678 9.828467
O -0.507575 3.659678 11.927963
Zn -4.615159 8.161714 3.301538
O -4.615159 8.161714 1.049748
Zn -3.296407 6.615026 1.125895
O -3.296407 6.615026 3.225391
Zn -4.615159 8.161714 7.652824
O -4.615159 8.161714 5.401034
Zn -3.296407 6.615026 5.477181
O -3.296407 6.615026 7.576677
Zn -4.615159 8.161714 12.004110
O -4.615159 8.161714 9.752320
Zn -3.296407 6.615026 9.828467
O -3.296407 6.615026 11.927963
Zn 3.978802 2.251018 3.301538
O 3.978802 2.251018 1.049748
Zn 5.297554 0.704330 1.125895
O 5.297554 0.704330 3.225391
Zn 3.978802 2.251018 7.652824
O 3.978802 2.251018 5.401034
Zn 5.297554 0.704330 5.477181
O 5.297554 0.704330 7.576677
Zn 3.978802 2.251018 12.004110
O 3.978802 2.251018 9.752320
Zn 5.297554 0.704330 9.828467
O 5.297554 0.704330 11.927963
Zn 1.189970 5.206366 3.301538
O 1.189970 5.206366 1.049748
Zn 2.508722 3.659678 1.125895
O 2.508722 3.659678 3.225391
Zn 1.189970 5.206366 7.652824
O 1.189970 5.206366 5.401034
Zn 2.508722 3.659678 5.477181
O 2.508722 3.659678 7.576677
Zn 1.189970 5.206366 12.004110
O 1.189970 5.206366 9.752320
Zn 2.508722 3.659678 9.828467
O 2.508722 3.659678 11.927963
Zn -1.598862 8.161714 3.301538
O -1.598862 8.161714 1.049748
Zn -0.280110 6.615026 1.125895
O -0.280110 6.615026 3.225391
Zn -1.598862 8.161714 7.652824
O -1.598862 8.161714 5.401034
Zn -0.280110 6.615026 5.477181
O -0.280110 6.615026 7.576677
Zn -1.598862 8.161714 12.004110
O -1.598862 8.161714 9.752320
Zn -0.280110 6.615026 9.828467
O -0.280110 6.615026 11.927963
