108
A
Zn -1.242231 2.316835 3.849782
O -1.242231 2.316835 0.942068
Zn -0.761522 0.543286 2.806900
O -0.761522 0.543286 -0.100814
Zn -1.242231 2.316835 8.778110
O -1.242231 2.316835 5.870396
Zn -0.761522 0.543286 7.735228
O -0.761522 0.543286 4.827514
Zn -1.242231 2.316835 13.706438
O -1.242231 2.316835 10.798724
Zn -0.761522 0.543286 12.663556
O -0.761522 0.543286 9.755842
Zn -3.245985 5.176957 2.670422
O -3.245985 5.176957 -0.237292
Zn -2.765275 3.403407 1.627540
O -2.765275 3.403407 -1.280174
Zn -3.245985 5.176957 7.598750
O -3.245985 5.176957 4.691036
Zn -2.765275 3.403407 6.555868
O -2.765275 3.403407 3.648154
Zn -3.245985 5.176957 12.527078
O -3.245985 5.176957 9.619364
Zn -2.765275 3.403407 11.484196
O -2.765275 3.403407 8.576482
Zn -5.249738 8.037078 1.491062
O -5.249738 8.037078 -1.416652
Zn -4.769029 6.263528 0.448180
O -4.769029 6.263528 -2.459534
Zn -5.249738 8.037078 6.419390
O -5.249738 8.037078 3.511676
Zn -4.769029 6.263528 5.376508
O -4.769029 6.263528 2.468794
Zn -5.249738 8.037078 11.347718
O -5.249738 8.037078 8.440004
Zn -4.769029 6.263528 10.304836
O -4.769029 6.263528 7.397122
Zn 1.931342 2.316835 3.849782
O 1.931342 2.316835 0.942068
Zn 2.412051 0.543286 2.806900
O 2.412051 0.543286 -0.100814
Zn 1.931342 2.316835 8.778110
O 1.931342 2.316835 5.870396
Zn 2.412051 0.543286 7.735228
O 2.412051 0.543286 4.827514
Zn 1.931342 2.316835 13.706438
O 1.931342 2.316835 10.798724
Zn 2.412051 0.543286 12.663556
O 2.412051 0.543286 9.755842
Zn -0.072411 5.176957 2.670422
O -0.072411 5.176957 -0.237292
Zn 0.408298 3.403407 1.627540
O 0.408298 3.403407 -1.280174
Zn -0.072411 5.176957 7.598750
O -0.072411 5.176957 4.691036
Zn 0.408298 3.403407 6.555868
O 0.408298 3.403407 3.648154
Zn -0.072411 5.176957 12.527078
O -0.072411 5.176957 9.619364
Zn 0.408298 3.403407 11.484196
O 0.408298 3.403407 8.576482
Zn -2.076165 8.037078 1.491062
O -2.076165 8.037078 -1.416652
Zn -1.595455 6.263528 0.448180
O -1.595455 6.263528 -2.459534
Zn -2.076165 8.037078 6.419390
O -2.076165 8.037078 3.511676
Zn -1.595455 6.263528 5.376508
O -1.595455 6.263528 2.468794
Zn -2.076165 8.037078 11.347718
O -2.076165 8.037078 8.440004
Zn -1.595455 6.263528 10.304836
O -1.595455 6.263528 7.397122
Zn 5.104915 2.316835 3.849782
O 5.104915 2.316835 0.942068
Zn 5.585625 0.543286 2.806900
O 5.585625 0.543286 -0.100814
Zn 5.104915 2.316835 8.778110
O 5.104915 2.316835 5.870396
Zn 5.585625 0.543286 7.735228
O 5.585625 0.543286 4.827514
Zn 5.104915 2.316835 13.706438
O 5.104915 2.316835 10.798724
Zn 5.585625 0.543286 12.663556
O 5.585625 0.543286 9.755842
Zn 3.101162 5.176957 2.670422
O 3.101162 5.176957 -0.237292
Zn 3.581871 3.403407 1.627540
O 3.581871 3.403407 -1.280174
Zn 3.101162 5.176957 7.598750
O 3.101162 5.176957 4.691036
Zn 3.581871 3.403407 6.555868
O 3.581871 3.403407 3.648154
Zn 3.101162 5.176957 12.527078
O 3.101162 5.176957 9.619364
Zn 3.581871 3.403407 11.484196
O 3.581871 3.403407 8.576482
Zn 1.097409 8.037078 1.491062
O 1.097409 8.037078 -1.416652
Zn 1.578118 6.263528 0.448180
O 1.578118 6.263528 -2.459534
Zn 1.097409 8.037078 6.419390
O 1.097409 8.037078 3.511676
Zn 1.578118 6.263528 5.376508
O 1.578118 6.263528 2.468794
Zn 1.097409 8.037078 11.347718
O 1.097409 8.037078 8.440004
Zn 1.578118 6.263528 10.304836
O 1.578118 6.263528 7.397122
