108
A
Zn -2.144546 2.242451 0.344155
O -2.144546 2.242451 -1.834131
Zn -0.739037 0.724390 2.198614
O -0.739037 0.724390 0.020328
Zn -2.144546 2.242451 4.625798
O -2.144546 2.242451 2.447512
Zn -0.739037 0.724390 6.480257
O -0.739037 0.724390 4.301971
Zn -2.144546 2.242451 8.907441
O -2.144546 2.242451 6.729155
Zn -0.739037 0.724390 10.761900
O -0.739037 0.724390 8.583614
Zn -5.028129 5.209292 -3.573005
O -5.028129 5.209292 -5.751291
Zn -3.622620 3.691231 -1.718546
O -3.622620 3.691231 -3.896832
Zn -5.028129 5.209292 0.708638
O -5.028129 5.209292 -1.469648
Zn -3.622620 3.691231 2.563097
O -3.622620 3.691231 0.384811
Zn -5.028129 5.209292 4.990281
O -5.028129 5.209292 2.811995
Zn -3.622620 3.691231 6.844740
O -3.622620 3.691231 4.666454
Zn -7.911712 8.176133 -7.490165
O -7.911712 8.176133 -9.668451
Zn -6.506203 6.658072 -5.635706
O -6.506203 6.658072 -7.813992
Zn -7.911712 8.176133 -3.208522
O -7.911712 8.176133 -5.386808
Zn -6.506203 6.658072 -1.354063
O -6.506203 6.658072 -3.532349
Zn -7.911712 8.176133 1.073121
O -7.911712 8.176133 -1.105165
Zn -6.506203 6.658072 2.927580
O -6.506203 6.658072 0.749294
Zn 0.852770 2.242451 0.344155
O 0.852770 2.242451 -1.834131
Zn 2.258278 0.724390 2.198614
O 2.258278 0.724390 0.020328
Zn 0.852770 2.242451 4.625798
O 0.852770 2.242451 2.447512
Zn 2.258278 0.724390 6.480257
O 2.258278 0.724390 4.301971
Zn 0.852770 2.242451 8.907441
O 0.852770 2.242451 6.729155
Zn 2.258278 0.724390 10.761900
O 2.258278 0.724390 8.583614
Zn -2.030813 5.209292 -3.573005
O -2.030813 5.209292 -5.751291
Zn -0.625305 3.691231 -1.718546
O -0.625305 3.691231 -3.896832
Zn -2.030813 5.209292 0.708638
O -2.030813 5.209292 -1.469648
Zn -0.625305 3.691231 2.563097
O -0.625305 3.691231 0.384811
Zn -2.030813 5.209292 4.990281
O -2.030813 5.209292 2.811995
Zn -0.625305 3.691231 6.844740
O -0.625305 3.691231 4.666454
Zn -4.914396 8.176133 -7.490165
O -4.914396 8.176133 -9.668451
Zn -3.508887 6.658072 -5.635706
O -3.508887 6.658072 -7.813992
Zn -4.914396 8.176133 -3.208522
O -4.914396 8.176133 -5.386808
Zn -3.508887 6.658072 -1.354063
O -3.508887 6.658072 -3.532349
Zn -4.914396 8.176133 1.073121
O -4.914396 8.176133 -1.105165
Zn -3.508887 6.658072 2.927580
O -3.508887 6.658072 0.749294
Zn 3.850085 2.242451 0.344155
O 3.850085 2.242451 -1.834131
Zn 5.255594 0.724390 2.198614
O 5.255594 0.724390 0.020328
Zn 3.850085 2.242451 4.625798
O 3.850085 2.242451 2.447512
Zn 5.255594 0.724390 6.480257
O 5.255594 0.724390 4.301971
Zn 3.850085 2.242451 8.907441
O 3.850085 2.242451 6.729155
Zn 5.255594 0.724390 10.761900
O 5.255594 0.724390 8.583614
Zn 0.966502 5.209292 -3.573005
O 0.966502 5.209292 -5.751291
Zn 2.372011 3.691231 -1.718546
O 2.372011 3.691231 -3.896832
Zn 0.966502 5.209292 0.708638
O 0.966502 5.209292 -1.469648
Zn 2.372011 3.691231 2.563097
O 2.372011 3.691231 0.384811
Zn 0.966502 5.209292 4.990281
O 0.966502 5.209292 2.811995
Zn 2.372011 3.691231 6.844740
O 2.372011 3.691231 4.666454
Zn -1.917081 8.176133 -7.490165
O -1.917081 8.176133 -9.668451
Zn -0.511572 6.658072 -5.635706
O -0.511572 6.658072 -7.813992
Zn -1.917081 8.176133 -3.208522
O -1.917081 8.176133 -5.386808
Zn -0.511572 6.658072 -1.354063
O -0.511572 6.658072 -3.532349
Zn -1.917081 8.176133 1.073121
O -1.917081 8.176133 -1.105165
Zn -0.511572 6.658072 2.927580
O -0.511572 6.658072 0.749294
