108
A
Zn -1.894610 2.265391 1.311001
O -1.894610 2.265391 -1.069633
Zn -0.731792 0.670255 2.423427
O -0.731792 0.670255 0.042793
Zn -1.894610 2.265391 5.781675
O -1.894610 2.265391 3.401041
Zn -0.731792 0.670255 6.894101
O -0.731792 0.670255 4.513467
Zn -1.894610 2.265391 10.252349
O -1.894610 2.265391 7.871715
Zn -0.731792 0.670255 11.364775
O -0.731792 0.670255 8.984141
Zn -4.521012 5.201037 -1.805879
O -4.521012 5.201037 -4.186513
Zn -3.358194 3.605901 -0.693453
O -3.358194 3.605901 -3.074087
Zn -4.521012 5.201037 2.664795
O -4.521012 5.201037 0.284161
Zn -3.358194 3.605901 3.777221
O -3.358194 3.605901 1.396587
Zn -4.521012 5.201037 7.135469
O -4.521012 5.201037 4.754835
Zn -3.358194 3.605901 8.247895
O -3.358194 3.605901 5.867261
Zn -7.147414 8.136683 -4.922759
O -7.147414 8.136683 -7.303393
Zn -5.984596 6.541547 -3.810333
O -5.984596 6.541547 -6.190967
Zn -7.147414 8.136683 -0.452085
O -7.147414 8.136683 -2.832719
Zn -5.984596 6.541547 0.660341
O -5.984596 6.541547 -1.720293
Zn -7.147414 8.136683 4.018589
O -7.147414 8.136683 1.637955
Zn -5.984596 6.541547 5.131015
O -5.984596 6.541547 2.750381
Zn 1.154227 2.265391 1.311001
O 1.154227 2.265391 -1.069633
Zn 2.317045 0.670255 2.423427
O 2.317045 0.670255 0.042793
Zn 1.154227 2.265391 5.781675
O 1.154227 2.265391 3.401041
Zn 2.317045 0.670255 6.894101
O 2.317045 0.670255 4.513467
Zn 1.154227 2.265391 10.252349
O 1.154227 2.265391 7.871715
Zn 2.317045 0.670255 11.364775
O 2.317045 0.670255 8.984141
Zn -1.472175 5.201037 -1.805879
O -1.472175 5.201037 -4.186513
Zn -0.309357 3.605901 -0.693453
O -0.309357 3.605901 -3.074087
Zn -1.472175 5.201037 2.664795
O -1.472175 5.201037 0.284161
Zn -0.309357 3.605901 3.777221
O -0.309357 3.605901 1.396587
Zn -1.472175 5.201037 7.135469
O -1.472175 5.201037 4.754835
Zn -0.309357 3.605901 8.247895
O -0.309357 3.605901 5.867261
Zn -4.098577 8.136683 -4.922759
O -4.098577 8.136683 -7.303393
Zn -2.935759 6.541547 -3.810333
O -2.935759 6.541547 -6.190967
Zn -4.098577 8.136683 -0.452085
O -4.098577 8.136683 -2.832719
Zn -2.935759 6.541547 0.660341
O -2.935759 6.541547 -1.720293
Zn -4.098577 8.136683 4.018589
O -4.098577 8.136683 1.637955
Zn -2.935759 6.541547 5.131015
O -2.935759 6.541547 2.750381
Zn 4.203064 2.265391 1.311001
O 4.203064 2.265391 -1.069633
Zn 5.365882 0.670255 2.423427
O 5.365882 0.670255 0.042793
Zn 4.203064 2.265391 5.781675
O 4.203064 2.265391 3.401041
Zn 5.365882 0.670255 6.894101
O 5.365882 0.670255 4.513467
Zn 4.203064 2.265391 10.252349
O 4.203064 2.265391 7.871715
Zn 5.365882 0.670255 11.364775
O 5.365882 0.670255 8.984141
Zn 1.576662 5.201037 -1.805879
O 1.576662 5.201037 -4.186513
Zn 2.739480 3.605901 -0.693453
O 2.739480 3.605901 -3.074087
Zn 1.576662 5.201037 2.664795
O 1.576662 5.201037 0.284161
Zn 2.739480 3.605901 3.777221
O 2.739480 3.605901 1.396587
Zn 1.576662 5.201037 7.135469
O 1.576662 5.201037 4.754835
Zn 2.739480 3.605901 8.247895
O 2.739480 3.605901 5.867261
Zn -1.049740 8.136683 -4.922759
O -1.049740 8.136683 -7.303393
Zn 0.113078 6.541547 -3.810333
O 0.113078 6.541547 -6.190967
Zn -1.049740 8.136683 -0.452085
O -1.049740 8.136683 -2.832719
Zn 0.113078 6.541547 0.660341
O 0.113078 6.541547 -1.720293
Zn -1.049740 8.136683 4.018589
O -1.049740 8.136683 1.637955
Zn 0.113078 6.541547 5.131015
O 0.113078 6.541547 2.750381
