108
A
Zn -1.257125 2.315779 3.791611
O -1.257125 2.315779 0.895915
Zn -0.760164 0.545984 2.800984
O -0.760164 0.545984 -0.094712
Zn -1.257125 2.315779 8.709990
O -1.257125 2.315779 5.814294
Zn -0.760164 0.545984 7.719363
O -0.760164 0.545984 4.823667
Zn -1.257125 2.315779 13.628369
O -1.257125 2.315779 10.732673
Zn -0.760164 0.545984 12.637742
O -0.760164 0.545984 9.742046
Zn -3.274414 5.177542 2.570131
O -3.274414 5.177542 -0.325565
Zn -2.777454 3.407747 1.579504
O -2.777454 3.407747 -1.316192
Zn -3.274414 5.177542 7.488510
O -3.274414 5.177542 4.592814
Zn -2.777454 3.407747 6.497883
O -2.777454 3.407747 3.602187
Zn -3.274414 5.177542 12.406889
O -3.274414 5.177542 9.511193
Zn -2.777454 3.407747 11.416262
O -2.777454 3.407747 8.520566
Zn -5.291704 8.039305 1.348651
O -5.291704 8.039305 -1.547045
Zn -4.794743 6.269510 0.358024
O -4.794743 6.269510 -2.537672
Zn -5.291704 8.039305 6.267030
O -5.291704 8.039305 3.371334
Zn -4.794743 6.269510 5.276403
O -4.794743 6.269510 2.380707
Zn -5.291704 8.039305 11.185409
O -5.291704 8.039305 8.289713
Zn -4.794743 6.269510 10.194782
O -4.794743 6.269510 7.299086
Zn 1.913737 2.315779 3.791611
O 1.913737 2.315779 0.895915
Zn 2.410698 0.545984 2.800984
O 2.410698 0.545984 -0.094712
Zn 1.913737 2.315779 8.709990
O 1.913737 2.315779 5.814294
Zn 2.410698 0.545984 7.719363
O 2.410698 0.545984 4.823667
Zn 1.913737 2.315779 13.628369
O 1.913737 2.315779 10.732673
Zn 2.410698 0.545984 12.637742
O 2.410698 0.545984 9.742046
Zn -0.103553 5.177542 2.570131
O -0.103553 5.177542 -0.325565
Zn 0.393408 3.407747 1.579504
O 0.393408 3.407747 -1.316192
Zn -0.103553 5.177542 7.488510
O -0.103553 5.177542 4.592814
Zn 0.393408 3.407747 6.497883
O 0.393408 3.407747 3.602187
Zn -0.103553 5.177542 12.406889
O -0.103553 5.177542 9.511193
Zn 0.393408 3.407747 11.416262
O 0.393408 3.407747 8.520566
Zn -2.120842 8.039305 1.348651
O -2.120842 8.039305 -1.547045
Zn -1.623881 6.269510 0.358024
O -1.623881 6.269510 -2.537672
Zn -2.120842 8.039305 6.267030
O -2.120842 8.039305 3.371334
Zn -1.623881 6.269510 5.276403
O -1.623881 6.269510 2.380707
Zn -2.120842 8.039305 11.185409
O -2.120842 8.039305 8.289713
Zn -1.623881 6.269510 10.194782
O -1.623881 6.269510 7.299086
Zn 5.084599 2.315779 3.791611
O 5.084599 2.315779 0.895915
Zn 5.581559 0.545984 2.800984
O 5.581559 0.545984 -0.094712
Zn 5.084599 2.315779 8.709990
O 5.084599 2.315779 5.814294
Zn 5.581559 0.545984 7.719363
O 5.581559 0.545984 4.823667
Zn 5.084599 2.315779 13.628369
O 5.084599 2.315779 10.732673
Zn 5.581559 0.545984 12.637742
O 5.581559 0.545984 9.742046
Zn 3.067309 5.177542 2.570131
O 3.067309 5.177542 -0.325565
Zn 3.564270 3.407747 1.579504
O 3.564270 3.407747 -1.316192
Zn 3.067309 5.177542 7.488510
O 3.067309 5.177542 4.592814
Zn 3.564270 3.407747 6.497883
O 3.564270 3.407747 3.602187
Zn 3.067309 5.177542 12.406889
O 3.067309 5.177542 9.511193
Zn 3.564270 3.407747 11.416262
O 3.564270 3.407747 8.520566
Zn 1.050020 8.039305 1.348651
O 1.050020 8.039305 -1.547045
Zn 1.546981 6.269510 0.358024
O 1.546981 6.269510 -2.537672
Zn 1.050020 8.039305 6.267030
O 1.050020 8.039305 3.371334
Zn 1.546981 6.269510 5.276403
O 1.546981 6.269510 2.380707
Zn 1.050020 8.039305 11.185409
O 1.050020 8.039305 8.289713
Zn 1.546981 6.269510 10.194782
O 1.546981 6.269510 7.299086
