108
A
Zn -1.661307 2.285078 2.216600
O -1.661307 2.285078 -0.352693
Zn -0.734985 0.622656 2.591660
O -0.734985 0.622656 0.022367
Zn -1.661307 2.285078 6.856407
O -1.661307 2.285078 4.287114
Zn -0.734985 0.622656 7.231467
O -0.734985 0.622656 4.662174
Zn -1.661307 2.285078 11.496214
O -1.661307 2.285078 8.926921
Zn -0.734985 0.622656 11.871274
O -0.734985 0.622656 9.301981
Zn -4.057600 5.192813 -0.184240
O -4.057600 5.192813 -2.753533
Zn -3.131278 3.530391 0.190820
O -3.131278 3.530391 -2.378473
Zn -4.057600 5.192813 4.455567
O -4.057600 5.192813 1.886274
Zn -3.131278 3.530391 4.830627
O -3.131278 3.530391 2.261334
Zn -4.057600 5.192813 9.095374
O -4.057600 5.192813 6.526081
Zn -3.131278 3.530391 9.470434
O -3.131278 3.530391 6.901141
Zn -6.453893 8.100547 -2.585080
O -6.453893 8.100547 -5.154373
Zn -5.527571 6.438126 -2.210020
O -5.527571 6.438126 -4.779313
Zn -6.453893 8.100547 2.054727
O -6.453893 8.100547 -0.514566
Zn -5.527571 6.438126 2.429787
O -5.527571 6.438126 -0.139506
Zn -6.453893 8.100547 6.694534
O -6.453893 8.100547 4.125241
Zn -5.527571 6.438126 7.069594
O -5.527571 6.438126 4.500301
Zn 1.433628 2.285078 2.216600
O 1.433628 2.285078 -0.352693
Zn 2.359950 0.622656 2.591660
O 2.359950 0.622656 0.022367
Zn 1.433628 2.285078 6.856407
O 1.433628 2.285078 4.287114
Zn 2.359950 0.622656 7.231467
O 2.359950 0.622656 4.662174
Zn 1.433628 2.285078 11.496214
O 1.433628 2.285078 8.926921
Zn 2.359950 0.622656 11.871274
O 2.359950 0.622656 9.301981
Zn -0.962665 5.192813 -0.184240
O -0.962665 5.192813 -2.753533
Zn -0.036343 3.530391 0.190820
O -0.036343 3.530391 -2.378473
Zn -0.962665 5.192813 4.455567
O -0.962665 5.192813 1.886274
Zn -0.036343 3.530391 4.830627
O -0.036343 3.530391 2.261334
Zn -0.962665 5.192813 9.095374
O -0.962665 5.192813 6.526081
Zn -0.036343 3.530391 9.470434
O -0.036343 3.530391 6.901141
Zn -3.358958 8.100547 -2.585080
O -3.358958 8.100547 -5.154373
Zn -2.432636 6.438126 -2.210020
O -2.432636 6.438126 -4.779313
Zn -3.358958 8.100547 2.054727
O -3.358958 8.100547 -0.514566
Zn -2.432636 6.438126 2.429787
O -2.432636 6.438126 -0.139506
Zn -3.358958 8.100547 6.694534
O -3.358958 8.100547 4.125241
Zn -2.432636 6.438126 7.069594
O -2.432636 6.438126 4.500301
Zn 4.528563 2.285078 2.216600
O 4.528563 2.285078 -0.352693
Zn 5.454885 0.622656 2.591660
O 5.454885 0.622656 0.022367
Zn 4.528563 2.285078 6.856407
O 4.528563 2.285078 4.287114
Zn 5.454885 0.622656 7.231467
O 5.454885 0.622656 4.662174
Zn 4.528563 2.285078 11.496214
O 4.528563 2.285078 8.926921
Zn 5.454885 0.622656 11.871274
O 5.454885 0.622656 9.301981
Zn 2.132270 5.192813 -0.184240
O 2.132270 5.192813 -2.753533
Zn 3.058592 3.530391 0.190820
O 3.058592 3.530391 -2.378473
Zn 2.132270 5.192813 4.455567
O 2.132270 5.192813 1.886274
Zn 3.058592 3.530391 4.830627
O 3.058592 3.530391 2.261334
Zn 2.132270 5.192813 9.095374
O 2.132270 5.192813 6.526081
Zn 3.058592 3.530391 9.470434
O 3.058592 3.530391 6.901141
Zn -0.264022 8.100547 -2.585080
O -0.264022 8.100547 -5.154373
Zn 0.662300 6.438126 -2.210020
O 0.662300 6.438126 -4.779313
Zn -0.264022 8.100547 2.054727
O -0.264022 8.100547 -0.514566
Zn 0.662300 6.438126 2.429787
O 0.662300 6.438126 -0.139506
Zn -0.264022 8.100547 6.694534
O -0.264022 8.100547 4.125241
Zn 0.662300 6.438126 7.069594
O 0.662300 6.438126 4.500301
