108
A
Zn -1.534095 2.295180 2.711530
O -1.534095 2.295180 0.039449
Zn -0.740375 0.597778 2.668139
O -0.740375 0.597778 -0.003942
Zn -1.534095 2.295180 7.440878
O -1.534095 2.295180 4.768797
Zn -0.740375 0.597778 7.397487
O -0.740375 0.597778 4.725406
Zn -1.534095 2.295180 12.170226
O -1.534095 2.295180 9.498145
Zn -0.740375 0.597778 12.126835
O -0.740375 0.597778 9.454754
Zn -3.808565 5.188138 0.689770
O -3.808565 5.188138 -1.982311
Zn -3.014845 3.490736 0.646379
O -3.014845 3.490736 -2.025702
Zn -3.808565 5.188138 5.419118
O -3.808565 5.188138 2.747037
Zn -3.014845 3.490736 5.375727
O -3.014845 3.490736 2.703646
Zn -3.808565 5.188138 10.148466
O -3.808565 5.188138 7.476385
Zn -3.014845 3.490736 10.105075
O -3.014845 3.490736 7.432994
Zn -6.083035 8.081096 -1.331990
O -6.083035 8.081096 -4.004071
Zn -5.289316 6.383694 -1.375381
O -5.289316 6.383694 -4.047462
Zn -6.083035 8.081096 3.397358
O -6.083035 8.081096 0.725277
Zn -5.289316 6.383694 3.353967
O -5.289316 6.383694 0.681886
Zn -6.083035 8.081096 8.126706
O -6.083035 8.081096 5.454625
Zn -5.289316 6.383694 8.083315
O -5.289316 6.383694 5.411234
Zn 1.585245 2.295180 2.711530
O 1.585245 2.295180 0.039449
Zn 2.378965 0.597778 2.668139
O 2.378965 0.597778 -0.003942
Zn 1.585245 2.295180 7.440878
O 1.585245 2.295180 4.768797
Zn 2.378965 0.597778 7.397487
O 2.378965 0.597778 4.725406
Zn 1.585245 2.295180 12.170226
O 1.585245 2.295180 9.498145
Zn 2.378965 0.597778 12.126835
O 2.378965 0.597778 9.454754
Zn -0.689225 5.188138 0.689770
O -0.689225 5.188138 -1.982311
Zn 0.104495 3.490736 0.646379
O 0.104495 3.490736 -2.025702
Zn -0.689225 5.188138 5.419118
O -0.689225 5.188138 2.747037
Zn 0.104495 3.490736 5.375727
O 0.104495 3.490736 2.703646
Zn -0.689225 5.188138 10.148466
O -0.689225 5.188138 7.476385
Zn 0.104495 3.490736 10.105075
O 0.104495 3.490736 7.432994
Zn -2.963695 8.081096 -1.331990
O -2.963695 8.081096 -4.004071
Zn -2.169975 6.383694 -1.375381
O -2.169975 6.383694 -4.047462
Zn -2.963695 8.081096 3.397358
O -2.963695 8.081096 0.725277
Zn -2.169975 6.383694 3.353967
O -2.169975 6.383694 0.681886
Zn -2.963695 8.081096 8.126706
O -2.963695 8.081096 5.454625
Zn -2.169975 6.383694 8.083315
O -2.169975 6.383694 5.411234
Zn 4.704585 2.295180 2.711530
O 4.704585 2.295180 0.039449
Zn 5.498305 0.597778 2.668139
O 5.498305 0.597778 -0.003942
Zn 4.704585 2.295180 7.440878
O 4.704585 2.295180 4.768797
Zn 5.498305 0.597778 7.397487
O 5.498305 0.597778 4.725406
Zn 4.704585 2.295180 12.170226
O 4.704585 2.295180 9.498145
Zn 5.498305 0.597778 12.126835
O 5.498305 0.597778 9.454754
Zn 2.430115 5.188138 0.689770
O 2.430115 5.188138 -1.982311
Zn 3.223835 3.490736 0.646379
O 3.223835 3.490736 -2.025702
Zn 2.430115 5.188138 5.419118
O 2.430115 5.188138 2.747037
Zn 3.223835 3.490736 5.375727
O 3.223835 3.490736 2.703646
Zn 2.430115 5.188138 10.148466
O 2.430115 5.188138 7.476385
Zn 3.223835 3.490736 10.105075
O 3.223835 3.490736 7.432994
Zn 0.155645 8.081096 -1.331990
O 0.155645 8.081096 -4.004071
Zn 0.949365 6.383694 -1.375381
O 0.949365 6.383694 -4.047462
Zn 0.155645 8.081096 3.397358
O 0.155645 8.081096 0.725277
Zn 0.949365 6.383694 3.353967
O 0.949365 6.383694 0.681886
Zn 0.155645 8.081096 8.126706
O 0.155645 8.081096 5.454625
Zn 0.949365 6.383694 8.083315
O 0.949365 6.383694 5.411234
