108
A
Zn -1.257125 2.315779 3.907037
O -1.257125 2.315779 1.011342
Zn -0.760164 0.545984 1.447848
O -0.760164 0.545984 3.470531
Zn -1.257125 2.315779 8.825416
O -1.257125 2.315779 5.929721
Zn -0.760164 0.545984 6.366227
O -0.760164 0.545984 8.388910
Zn -1.257125 2.315779 13.743795
O -1.257125 2.315779 10.848100
Zn -0.760164 0.545984 11.284606
O -0.760164 0.545984 13.307289
Zn -3.274414 5.177542 3.907037
O -3.274414 5.177542 1.011342
Zn -2.777454 3.407747 1.447848
O -2.777454 3.407747 3.470531
Zn -3.274414 5.177542 8.825416
O -3.274414 5.177542 5.929721
Zn -2.777454 3.407747 6.366227
O -2.777454 3.407747 8.388910
Zn -3.274414 5.177542 13.743795
O -3.274414 5.177542 10.848100
Zn -2.777454 3.407747 11.284606
O -2.777454 3.407747 13.307289
Zn -5.291704 8.039305 3.907037
O -5.291704 8.039305 1.011342
Zn -4.794743 6.269510 1.447848
O -4.794743 6.269510 3.470531
Zn -5.291704 8.039305 8.825416
O -5.291704 8.039305 5.929721
Zn -4.794743 6.269510 6.366227
O -4.794743 6.269510 8.388910
Zn -5.291704 8.039305 13.743795
O -5.291704 8.039305 10.848100
Zn -4.794743 6.269510 11.284606
O -4.794743 6.269510 13.307289
Zn 1.913737 2.315779 3.907037
O 1.913737 2.315779 1.011342
Zn 2.410698 0.545984 1.447848
O 2.410698 0.545984 3.470531
Zn 1.913737 2.315779 8.825416
O 1.913737 2.315779 5.929721
Zn 2.410698 0.545984 6.366227
O 2.410698 0.545984 8.388910
Zn 1.913737 2.315779 13.743795
O 1.913737 2.315779 10.848100
Zn 2.410698 0.545984 11.284606
O 2.410698 0.545984 13.307289
Zn -0.103553 5.177542 3.907037
O -0.103553 5.177542 1.011342
Zn 0.393408 3.407747 1.447848
O 0.393408 3.407747 3.470531
Zn -0.103553 5.177542 8.825416
O -0.103553 5.177542 5.929721
Zn 0.393408 3.407747 6.366227
O 0.393408 3.407747 8.388910
Zn -0.103553 5.177542 13.743795
O -0.103553 5.177542 10.848100
Zn 0.393408 3.407747 11.284606
O 0.393408 3.407747 13.307289
Zn -2.120842 8.039305 3.907037
O -2.120842 8.039305 1.011342
Zn -1.623881 6.269510 1.447848
O -1.623881 6.269510 3.470531
Zn -2.120842 8.039305 8.825416
O -2.120842 8.039305 5.929721
Zn -1.623881 6.269510 6.366227
O -1.623881 6.269510 8.388910
Zn -2.120842 8.039305 13.743795
O -2.120842 8.039305 10.848100
Zn -1.623881 6.269510 11.284606
O -1.623881 6.269510 13.307289
Zn 5.084599 2.315779 3.907037
O 5.084599 2.315779 1.011342
Zn 5.581559 0.545984 1.447848
O 5.581559 0.545984 3.470531
Zn 5.084599 2.315779 8.825416
O 5.084599 2.315779 5.929721
Zn 5.581559 0.545984 6.366227
O 5.581559 0.545984 8.388910
Zn 5.084599 2.315779 13.743795
O 5.084599 2.315779 10.848100
Zn 5.581559 0.545984 11.284606
O 5.581559 0.545984 13.307289
Zn 3.067309 5.177542 3.907037
O 3.067309 5.177542 1.011342
Zn 3.564270 3.407747 1.447848
O 3.564270 3.407747 3.470531
Zn 3.067309 5.177542 8.825416
O 3.067309 5.177542 5.929721
Zn 3.564270 3.407747 6.366227
O 3.564270 3.407747 8.388910
Zn 3.067309 5.177542 13.743795
O 3.067309 5.177542 10.848100
Zn 3.564270 3.407747 11.284606
O 3.564270 3.407747 13.307289
Zn 1.050020 8.039305 3.907037
O 1.050020 8.039305 1.011342
Zn 1.546981 6.269510 1.447848
O 1.546981 6.269510 3.470531
Zn 1.050020 8.039305 8.825416
O 1.050020 8.039305 5.929721
Zn 1.546981 6.269510 6.366227
O 1.546981 6.269510 8.388910
Zn 1.050020 8.039305 13.743795
O 1.050020 8.039305 10.848100
Zn 1.546981 6.269510 11.284606
O 1.546981 6.269510 13.307289
