108
A
Zn -0.937721 2.337395 4.140301
O -0.937721 2.337395 0.987007
Zn -0.795316 0.489889 1.576647
O -0.795316 0.489889 3.550661
Zn -0.937721 2.337395 9.267609
O -0.937721 2.337395 6.114315
Zn -0.795316 0.489889 6.703955
O -0.795316 0.489889 8.677969
Zn -0.937721 2.337395 14.394917
O -0.937721 2.337395 11.241623
Zn -0.795316 0.489889 11.831263
O -0.795316 0.489889 13.805277
Zn -2.670757 5.164679 4.140301
O -2.670757 5.164679 0.987007
Zn -2.528353 3.317173 1.576647
O -2.528353 3.317173 3.550661
Zn -2.670757 5.164679 9.267609
O -2.670757 5.164679 6.114315
Zn -2.528353 3.317173 6.703955
O -2.528353 3.317173 8.677969
Zn -2.670757 5.164679 14.394917
O -2.670757 5.164679 11.241623
Zn -2.528353 3.317173 11.831263
O -2.528353 3.317173 13.805277
Zn -4.403794 7.991964 4.140301
O -4.403794 7.991964 0.987007
Zn -4.261389 6.144458 1.576647
O -4.261389 6.144458 3.550661
Zn -4.403794 7.991964 9.267609
O -4.403794 7.991964 6.114315
Zn -4.261389 6.144458 6.703955
O -4.261389 6.144458 8.677969
Zn -4.403794 7.991964 14.394917
O -4.403794 7.991964 11.241623
Zn -4.261389 6.144458 11.831263
O -4.261389 6.144458 13.805277
Zn 2.290086 2.337395 4.140301
O 2.290086 2.337395 0.987007
Zn 2.432491 0.489889 1.576647
O 2.432491 0.489889 3.550661
Zn 2.290086 2.337395 9.267609
O 2.290086 2.337395 6.114315
Zn 2.432491 0.489889 6.703955
O 2.432491 0.489889 8.677969
Zn 2.290086 2.337395 14.394917
O 2.290086 2.337395 11.241623
Zn 2.432491 0.489889 11.831263
O 2.432491 0.489889 13.805277
Zn 0.557049 5.164679 4.140301
O 0.557049 5.164679 0.987007
Zn 0.699454 3.317173 1.576647
O 0.699454 3.317173 3.550661
Zn 0.557049 5.164679 9.267609
O 0.557049 5.164679 6.114315
Zn 0.699454 3.317173 6.703955
O 0.699454 3.317173 8.677969
Zn 0.557049 5.164679 14.394917
O 0.557049 5.164679 11.241623
Zn 0.699454 3.317173 11.831263
O 0.699454 3.317173 13.805277
Zn -1.175987 7.991964 4.140301
O -1.175987 7.991964 0.987007
Zn -1.033583 6.144458 1.576647
O -1.033583 6.144458 3.550661
Zn -1.175987 7.991964 9.267609
O -1.175987 7.991964 6.114315
Zn -1.033583 6.144458 6.703955
O -1.033583 6.144458 8.677969
Zn -1.175987 7.991964 14.394917
O -1.175987 7.991964 11.241623
Zn -1.033583 6.144458 11.831263
O -1.033583 6.144458 13.805277
Zn 5.517893 2.337395 4.140301
O 5.517893 2.337395 0.987007
Zn 5.660297 0.489889 1.576647
O 5.660297 0.489889 3.550661
Zn 5.517893 2.337395 9.267609
O 5.517893 2.337395 6.114315
Zn 5.660297 0.489889 6.703955
O 5.660297 0.489889 8.677969
Zn 5.517893 2.337395 14.394917
O 5.517893 2.337395 11.241623
Zn 5.660297 0.489889 11.831263
O 5.660297 0.489889 13.805277
Zn 3.784856 5.164679 4.140301
O 3.784856 5.164679 0.987007
Zn 3.927261 3.317173 1.576647
O 3.927261 3.317173 3.550661
Zn 3.784856 5.164679 9.267609
O 3.784856 5.164679 6.114315
Zn 3.927261 3.317173 6.703955
O 3.927261 3.317173 8.677969
Zn 3.784856 5.164679 14.394917
O 3.784856 5.164679 11.241623
Zn 3.927261 3.317173 11.831263
O 3.927261 3.317173 13.805277
Zn 2.051819 7.991964 4.140301
O 2.051819 7.991964 0.987007
Zn 2.194224 6.144458 1.576647
O 2.194224 6.144458 3.550661
Zn 2.051819 7.991964 9.267609
O 2.051819 7.991964 6.114315
Zn 2.194224 6.144458 6.703955
O 2.194224 6.144458 8.677969
Zn 2.051819 7.991964 14.394917
O 2.051819 7.991964 11.241623
Zn 2.194224 6.144458 11.831263
O 2.194224 6.144458 13.805277
