108
A
Zn -1.675284 2.283942 2.162270
O -1.675284 2.283942 -0.395726
Zn -0.734545 0.625434 2.582624
O -0.734545 0.625434 0.024628
Zn -1.675284 2.283942 6.792128
O -1.675284 2.283942 4.234132
Zn -0.734545 0.625434 7.212482
O -0.734545 0.625434 4.654486
Zn -1.675284 2.283942 11.421986
O -1.675284 2.283942 8.863990
Zn -0.734545 0.625434 11.842340
O -0.734545 0.625434 9.284344
Zn -4.085113 5.193318 -0.280690
O -4.085113 5.193318 -2.838686
Zn -3.144373 3.534811 0.139664
O -3.144373 3.534811 -2.418332
Zn -4.085113 5.193318 4.349168
O -4.085113 5.193318 1.791172
Zn -3.144373 3.534811 4.769522
O -3.144373 3.534811 2.211526
Zn -4.085113 5.193318 8.979026
O -4.085113 5.193318 6.421030
Zn -3.144373 3.534811 9.399380
O -3.144373 3.534811 6.841384
Zn -6.494941 8.102695 -2.723650
O -6.494941 8.102695 -5.281646
Zn -5.554202 6.444187 -2.303296
O -5.554202 6.444187 -4.861292
Zn -6.494941 8.102695 1.906208
O -6.494941 8.102695 -0.651788
Zn -5.554202 6.444187 2.326562
O -5.554202 6.444187 -0.231434
Zn -6.494941 8.102695 6.536066
O -6.494941 8.102695 3.978070
Zn -5.554202 6.444187 6.956420
O -5.554202 6.444187 4.398424
Zn 1.416940 2.283942 2.162270
O 1.416940 2.283942 -0.395726
Zn 2.357679 0.625434 2.582624
O 2.357679 0.625434 0.024628
Zn 1.416940 2.283942 6.792128
O 1.416940 2.283942 4.234132
Zn 2.357679 0.625434 7.212482
O 2.357679 0.625434 4.654486
Zn 1.416940 2.283942 11.421986
O 1.416940 2.283942 8.863990
Zn 2.357679 0.625434 11.842340
O 2.357679 0.625434 9.284344
Zn -0.992889 5.193318 -0.280690
O -0.992889 5.193318 -2.838686
Zn -0.052150 3.534811 0.139664
O -0.052150 3.534811 -2.418332
Zn -0.992889 5.193318 4.349168
O -0.992889 5.193318 1.791172
Zn -0.052150 3.534811 4.769522
O -0.052150 3.534811 2.211526
Zn -0.992889 5.193318 8.979026
O -0.992889 5.193318 6.421030
Zn -0.052150 3.534811 9.399380
O -0.052150 3.534811 6.841384
Zn -3.402718 8.102695 -2.723650
O -3.402718 8.102695 -5.281646
Zn -2.461978 6.444187 -2.303296
O -2.461978 6.444187 -4.861292
Zn -3.402718 8.102695 1.906208
O -3.402718 8.102695 -0.651788
Zn -2.461978 6.444187 2.326562
O -2.461978 6.444187 -0.231434
Zn -3.402718 8.102695 6.536066
O -3.402718 8.102695 3.978070
Zn -2.461978 6.444187 6.956420
O -2.461978 6.444187 4.398424
Zn 4.509163 2.283942 2.162270
O 4.509163 2.283942 -0.395726
Zn 5.449903 0.625434 2.582624
O 5.449903 0.625434 0.024628
Zn 4.509163 2.283942 6.792128
O 4.509163 2.283942 4.234132
Zn 5.449903 0.625434 7.212482
O 5.449903 0.625434 4.654486
Zn 4.509163 2.283942 11.421986
O 4.509163 2.283942 8.863990
Zn 5.449903 0.625434 11.842340
O 5.449903 0.625434 9.284344
Zn 2.099335 5.193318 -0.280690
O 2.099335 5.193318 -2.838686
Zn 3.040074 3.534811 0.139664
O 3.040074 3.534811 -2.418332
Zn 2.099335 5.193318 4.349168
O 2.099335 5.193318 1.791172
Zn 3.040074 3.534811 4.769522
O 3.040074 3.534811 2.211526
Zn 2.099335 5.193318 8.979026
O 2.099335 5.193318 6.421030
Zn 3.040074 3.534811 9.399380
O 3.040074 3.534811 6.841384
Zn -0.310494 8.102695 -2.723650
O -0.310494 8.102695 -5.281646
Zn 0.630245 6.444187 -2.303296
O 0.630245 6.444187 -4.861292
Zn -0.310494 8.102695 1.906208
O -0.310494 8.102695 -0.651788
Zn 0.630245 6.444187 2.326562
O 0.630245 6.444187 -0.231434
Zn -0.310494 8.102695 6.536066
O -0.310494 8.102695 3.978070
Zn 0.630245 6.444187 6.956420
O 0.630245 6.444187 4.398424
