108
A
Zn -1.030402 2.331342 4.678078
O -1.030402 2.331342 1.599502
Zn -0.783850 0.505793 2.878432
O -0.783850 0.505793 -0.200144
Zn -1.030402 2.331342 9.745692
O -1.030402 2.331342 6.667116
Zn -0.783850 0.505793 7.946046
O -0.783850 0.505793 4.867470
Zn -1.030402 2.331342 14.813306
O -1.030402 2.331342 11.734730
Zn -0.783850 0.505793 13.013660
O -0.783850 0.505793 9.935084
Zn -2.844654 5.168478 4.088398
O -2.844654 5.168478 1.009822
Zn -2.598102 3.342928 2.288752
O -2.598102 3.342928 -0.789824
Zn -2.844654 5.168478 9.156012
O -2.844654 5.168478 6.077436
Zn -2.598102 3.342928 7.356366
O -2.598102 3.342928 4.277790
Zn -2.844654 5.168478 14.223626
O -2.844654 5.168478 11.145050
Zn -2.598102 3.342928 12.423980
O -2.598102 3.342928 9.345404
Zn -4.658905 8.005613 3.498718
O -4.658905 8.005613 0.420142
Zn -4.412353 6.180064 1.699072
O -4.412353 6.180064 -1.379504
Zn -4.658905 8.005613 8.566332
O -4.658905 8.005613 5.487756
Zn -4.412353 6.180064 6.766686
O -4.412353 6.180064 3.688110
Zn -4.658905 8.005613 13.633946
O -4.658905 8.005613 10.555370
Zn -4.412353 6.180064 11.834300
O -4.412353 6.180064 8.755724
Zn 2.181135 2.331342 4.678078
O 2.181135 2.331342 1.599502
Zn 2.427687 0.505793 2.878432
O 2.427687 0.505793 -0.200144
Zn 2.181135 2.331342 9.745692
O 2.181135 2.331342 6.667116
Zn 2.427687 0.505793 7.946046
O 2.427687 0.505793 4.867470
Zn 2.181135 2.331342 14.813306
O 2.181135 2.331342 11.734730
Zn 2.427687 0.505793 13.013660
O 2.427687 0.505793 9.935084
Zn 0.366883 5.168478 4.088398
O 0.366883 5.168478 1.009822
Zn 0.613435 3.342928 2.288752
O 0.613435 3.342928 -0.789824
Zn 0.366883 5.168478 9.156012
O 0.366883 5.168478 6.077436
Zn 0.613435 3.342928 7.356366
O 0.613435 3.342928 4.277790
Zn 0.366883 5.168478 14.223626
O 0.366883 5.168478 11.145050
Zn 0.613435 3.342928 12.423980
O 0.613435 3.342928 9.345404
Zn -1.447369 8.005613 3.498718
O -1.447369 8.005613 0.420142
Zn -1.200817 6.180064 1.699072
O -1.200817 6.180064 -1.379504
Zn -1.447369 8.005613 8.566332
O -1.447369 8.005613 5.487756
Zn -1.200817 6.180064 6.766686
O -1.200817 6.180064 3.688110
Zn -1.447369 8.005613 13.633946
O -1.447369 8.005613 10.555370
Zn -1.200817 6.180064 11.834300
O -1.200817 6.180064 8.755724
Zn 5.392672 2.331342 4.678078
O 5.392672 2.331342 1.599502
Zn 5.639224 0.505793 2.878432
O 5.639224 0.505793 -0.200144
Zn 5.392672 2.331342 9.745692
O 5.392672 2.331342 6.667116
Zn 5.639224 0.505793 7.946046
O 5.639224 0.505793 4.867470
Zn 5.392672 2.331342 14.813306
O 5.392672 2.331342 11.734730
Zn 5.639224 0.505793 13.013660
O 5.639224 0.505793 9.935084
Zn 3.578420 5.168478 4.088398
O 3.578420 5.168478 1.009822
Zn 3.824972 3.342928 2.288752
O 3.824972 3.342928 -0.789824
Zn 3.578420 5.168478 9.156012
O 3.578420 5.168478 6.077436
Zn 3.824972 3.342928 7.356366
O 3.824972 3.342928 4.277790
Zn 3.578420 5.168478 14.223626
O 3.578420 5.168478 11.145050
Zn 3.824972 3.342928 12.423980
O 3.824972 3.342928 9.345404
Zn 1.764168 8.005613 3.498718
O 1.764168 8.005613 0.420142
Zn 2.010720 6.180064 1.699072
O 2.010720 6.180064 -1.379504
Zn 1.764168 8.005613 8.566332
O 1.764168 8.005613 5.487756
Zn 2.010720 6.180064 6.766686
O 2.010720 6.180064 3.688110
Zn 1.764168 8.005613 13.633946
O 1.764168 8.005613 10.555370
Zn 2.010720 6.180064 11.834300
O 2.010720 6.180064 8.755724
