108
A
Zn -0.890953 2.340385 5.224261
O -0.890953 2.340385 2.033271
Zn -0.801476 0.481974 2.913284
O -0.801476 0.481974 -0.277706
Zn -0.890953 2.340385 10.381416
O -0.890953 2.340385 7.190426
Zn -0.801476 0.481974 8.070439
O -0.801476 0.481974 4.879449
Zn -0.890953 2.340385 15.538571
O -0.890953 2.340385 12.347581
Zn -0.801476 0.481974 13.227594
O -0.801476 0.481974 10.036604
Zn -2.583382 5.162743 5.013661
O -2.583382 5.162743 1.822671
Zn -2.493905 3.304333 2.702684
O -2.493905 3.304333 -0.488306
Zn -2.583382 5.162743 10.170816
O -2.583382 5.162743 6.979826
Zn -2.493905 3.304333 7.859839
O -2.493905 3.304333 4.668849
Zn -2.583382 5.162743 15.327971
O -2.583382 5.162743 12.136981
Zn -2.493905 3.304333 13.016994
O -2.493905 3.304333 9.826004
Zn -4.275812 7.985102 4.803061
O -4.275812 7.985102 1.612071
Zn -4.186334 6.126692 2.492084
O -4.186334 6.126692 -0.698906
Zn -4.275812 7.985102 9.960216
O -4.275812 7.985102 6.769226
Zn -4.186334 6.126692 7.649239
O -4.186334 6.126692 4.458249
Zn -4.275812 7.985102 15.117371
O -4.275812 7.985102 11.926381
Zn -4.186334 6.126692 12.806394
O -4.186334 6.126692 9.615404
Zn 2.344989 2.340385 5.224261
O 2.344989 2.340385 2.033271
Zn 2.434466 0.481974 2.913284
O 2.434466 0.481974 -0.277706
Zn 2.344989 2.340385 10.381416
O 2.344989 2.340385 7.190426
Zn 2.434466 0.481974 8.070439
O 2.434466 0.481974 4.879449
Zn 2.344989 2.340385 15.538571
O 2.344989 2.340385 12.347581
Zn 2.434466 0.481974 13.227594
O 2.434466 0.481974 10.036604
Zn 0.652559 5.162743 5.013661
O 0.652559 5.162743 1.822671
Zn 0.742036 3.304333 2.702684
O 0.742036 3.304333 -0.488306
Zn 0.652559 5.162743 10.170816
O 0.652559 5.162743 6.979826
Zn 0.742036 3.304333 7.859839
O 0.742036 3.304333 4.668849
Zn 0.652559 5.162743 15.327971
O 0.652559 5.162743 12.136981
Zn 0.742036 3.304333 13.016994
O 0.742036 3.304333 9.826004
Zn -1.039870 7.985102 4.803061
O -1.039870 7.985102 1.612071
Zn -0.950393 6.126692 2.492084
O -0.950393 6.126692 -0.698906
Zn -1.039870 7.985102 9.960216
O -1.039870 7.985102 6.769226
Zn -0.950393 6.126692 7.649239
O -0.950393 6.126692 4.458249
Zn -1.039870 7.985102 15.117371
O -1.039870 7.985102 11.926381
Zn -0.950393 6.126692 12.806394
O -0.950393 6.126692 9.615404
Zn 5.580930 2.340385 5.224261
O 5.580930 2.340385 2.033271
Zn 5.670407 0.481974 2.913284
O 5.670407 0.481974 -0.277706
Zn 5.580930 2.340385 10.381416
O 5.580930 2.340385 7.190426
Zn 5.670407 0.481974 8.070439
O 5.670407 0.481974 4.879449
Zn 5.580930 2.340385 15.538571
O 5.580930 2.340385 12.347581
Zn 5.670407 0.481974 13.227594
O 5.670407 0.481974 10.036604
Zn 3.888501 5.162743 5.013661
O 3.888501 5.162743 1.822671
Zn 3.977978 3.304333 2.702684
O 3.977978 3.304333 -0.488306
Zn 3.888501 5.162743 10.170816
O 3.888501 5.162743 6.979826
Zn 3.977978 3.304333 7.859839
O 3.977978 3.304333 4.668849
Zn 3.888501 5.162743 15.327971
O 3.888501 5.162743 12.136981
Zn 3.977978 3.304333 13.016994
O 3.977978 3.304333 9.826004
Zn 2.196072 7.985102 4.803061
O 2.196072 7.985102 1.612071
Zn 2.285549 6.126692 2.492084
O 2.285549 6.126692 -0.698906
Zn 2.196072 7.985102 9.960216
O 2.196072 7.985102 6.769226
Zn 2.285549 6.126692 7.649239
O 2.285549 6.126692 4.458249
Zn 2.196072 7.985102 15.117371
O 2.196072 7.985102 11.926381
Zn 2.285549 6.126692 12.806394
O 2.285549 6.126692 9.615404
