108
A
Zn -2.195710 2.237496 3.189339
O -2.195710 2.237496 1.052508
Zn -0.742017 0.735913 1.068415
O -0.742017 0.735913 3.173432
Zn -2.195710 2.237496 7.431186
O -2.195710 2.237496 5.294355
Zn -0.742017 0.735913 5.310262
O -0.742017 0.735913 7.415279
Zn -2.195710 2.237496 11.673033
O -2.195710 2.237496 9.536202
Zn -0.742017 0.735913 9.552109
O -0.742017 0.735913 11.657126
Zn -5.133436 5.210904 3.189339
O -5.133436 5.210904 1.052508
Zn -3.679743 3.709321 1.068415
O -3.679743 3.709321 3.173432
Zn -5.133436 5.210904 7.431186
O -5.133436 5.210904 5.294355
Zn -3.679743 3.709321 5.310262
O -3.679743 3.709321 7.415279
Zn -5.133436 5.210904 11.673033
O -5.133436 5.210904 9.536202
Zn -3.679743 3.709321 9.552109
O -3.679743 3.709321 11.657126
Zn -8.071162 8.184312 3.189339
O -8.071162 8.184312 1.052508
Zn -6.617469 6.682729 1.068415
O -6.617469 6.682729 3.173432
Zn -8.071162 8.184312 7.431186
O -8.071162 8.184312 5.294355
Zn -6.617469 6.682729 5.310262
O -6.617469 6.682729 7.415279
Zn -8.071162 8.184312 11.673033
O -8.071162 8.184312 9.536202
Zn -6.617469 6.682729 9.552109
O -6.617469 6.682729 11.657126
Zn 0.790759 2.237496 3.189339
O 0.790759 2.237496 1.052508
Zn 2.244452 0.735913 1.068415
O 2.244452 0.735913 3.173432
Zn 0.790759 2.237496 7.431186
O 0.790759 2.237496 5.294355
Zn 2.244452 0.735913 5.310262
O 2.244452 0.735913 7.415279
Zn 0.790759 2.237496 11.673033
O 0.790759 2.237496 9.536202
Zn 2.244452 0.735913 9.552109
O 2.244452 0.735913 11.657126
Zn -2.146967 5.210904 3.189339
O -2.146967 5.210904 1.052508
Zn -0.693274 3.709321 1.068415
O -0.693274 3.709321 3.173432
Zn -2.146967 5.210904 7.431186
O -2.146967 5.210904 5.294355
Zn -0.693274 3.709321 5.310262
O -0.693274 3.709321 7.415279
Zn -2.146967 5.210904 11.673033
O -2.146967 5.210904 9.536202
Zn -0.693274 3.709321 9.552109
O -0.693274 3.709321 11.657126
Zn -5.084693 8.184312 3.189339
O -5.084693 8.184312 1.052508
Zn -3.631000 6.682729 1.068415
O -3.631000 6.682729 3.173432
Zn -5.084693 8.184312 7.431186
O -5.084693 8.184312 5.294355
Zn -3.631000 6.682729 5.310262
O -3.631000 6.682729 7.415279
Zn -5.084693 8.184312 11.673033
O -5.084693 8.184312 9.536202
Zn -3.631000 6.682729 9.552109
O -3.631000 6.682729 11.657126
Zn 3.777228 2.237496 3.189339
O 3.777228 2.237496 1.052508
Zn 5.230921 0.735913 1.068415
O 5.230921 0.735913 3.173432
Zn 3.777228 2.237496 7.431186
O 3.777228 2.237496 5.294355
Zn 5.230921 0.735913 5.310262
O 5.230921 0.735913 7.415279
Zn 3.777228 2.237496 11.673033
O 3.777228 2.237496 9.536202
Zn 5.230921 0.735913 9.552109
O 5.230921 0.735913 11.657126
Zn 0.839502 5.210904 3.189339
O 0.839502 5.210904 1.052508
Zn 2.293195 3.709321 1.068415
O 2.293195 3.709321 3.173432
Zn 0.839502 5.210904 7.431186
O 0.839502 5.210904 5.294355
Zn 2.293195 3.709321 5.310262
O 2.293195 3.709321 7.415279
Zn 0.839502 5.210904 11.673033
O 0.839502 5.210904 9.536202
Zn 2.293195 3.709321 9.552109
O 2.293195 3.709321 11.657126
Zn -2.098225 8.184312 3.189339
O -2.098225 8.184312 1.052508
Zn -0.644532 6.682729 1.068415
O -0.644532 6.682729 3.173432
Zn -2.098225 8.184312 7.431186
O -2.098225 8.184312 5.294355
Zn -0.644532 6.682729 5.310262
O -0.644532 6.682729 7.415279
Zn -2.098225 8.184312 11.673033
O -2.098225 8.184312 9.536202
Zn -0.644532 6.682729 9.552109
O -0.644532 6.682729 11.657126
