108
A
Zn -2.182966 2.238739 3.199476
O -2.182966 2.238739 1.052320
Zn -0.741224 0.733028 1.073578
O -0.741224 0.733028 3.178218
Zn -2.182966 2.238739 7.451272
O -2.182966 2.238739 5.304116
Zn -0.741224 0.733028 5.325374
O -0.741224 0.733028 7.430014
Zn -2.182966 2.238739 11.703068
O -2.182966 2.238739 9.555912
Zn -0.741224 0.733028 9.577170
O -0.741224 0.733028 11.681810
Zn -5.107156 5.210505 3.199476
O -5.107156 5.210505 1.052320
Zn -3.665415 3.704794 1.073578
O -3.665415 3.704794 3.178218
Zn -5.107156 5.210505 7.451272
O -5.107156 5.210505 5.304116
Zn -3.665415 3.704794 5.325374
O -3.665415 3.704794 7.430014
Zn -5.107156 5.210505 11.703068
O -5.107156 5.210505 9.555912
Zn -3.665415 3.704794 9.577170
O -3.665415 3.704794 11.681810
Zn -8.031347 8.182271 3.199476
O -8.031347 8.182271 1.052320
Zn -6.589605 6.676561 1.073578
O -6.589605 6.676561 3.178218
Zn -8.031347 8.182271 7.451272
O -8.031347 8.182271 5.304116
Zn -6.589605 6.676561 5.325374
O -6.589605 6.676561 7.430014
Zn -8.031347 8.182271 11.703068
O -8.031347 8.182271 9.555912
Zn -6.589605 6.676561 9.577170
O -6.589605 6.676561 11.681810
Zn 0.806214 2.238739 3.199476
O 0.806214 2.238739 1.052320
Zn 2.247956 0.733028 1.073578
O 2.247956 0.733028 3.178218
Zn 0.806214 2.238739 7.451272
O 0.806214 2.238739 5.304116
Zn 2.247956 0.733028 5.325374
O 2.247956 0.733028 7.430014
Zn 0.806214 2.238739 11.703068
O 0.806214 2.238739 9.555912
Zn 2.247956 0.733028 9.577170
O 2.247956 0.733028 11.681810
Zn -2.117976 5.210505 3.199476
O -2.117976 5.210505 1.052320
Zn -0.676234 3.704794 1.073578
O -0.676234 3.704794 3.178218
Zn -2.117976 5.210505 7.451272
O -2.117976 5.210505 5.304116
Zn -0.676234 3.704794 5.325374
O -0.676234 3.704794 7.430014
Zn -2.117976 5.210505 11.703068
O -2.117976 5.210505 9.555912
Zn -0.676234 3.704794 9.577170
O -0.676234 3.704794 11.681810
Zn -5.042166 8.182271 3.199476
O -5.042166 8.182271 1.052320
Zn -3.600425 6.676561 1.073578
O -3.600425 6.676561 3.178218
Zn -5.042166 8.182271 7.451272
O -5.042166 8.182271 5.304116
Zn -3.600425 6.676561 5.325374
O -3.600425 6.676561 7.430014
Zn -5.042166 8.182271 11.703068
O -5.042166 8.182271 9.555912
Zn -3.600425 6.676561 9.577170
O -3.600425 6.676561 11.681810
Zn 3.795395 2.238739 3.199476
O 3.795395 2.238739 1.052320
Zn 5.237136 0.733028 1.073578
O 5.237136 0.733028 3.178218
Zn 3.795395 2.238739 7.451272
O 3.795395 2.238739 5.304116
Zn 5.237136 0.733028 5.325374
O 5.237136 0.733028 7.430014
Zn 3.795395 2.238739 11.703068
O 3.795395 2.238739 9.555912
Zn 5.237136 0.733028 9.577170
O 5.237136 0.733028 11.681810
Zn 0.871204 5.210505 3.199476
O 0.871204 5.210505 1.052320
Zn 2.312946 3.704794 1.073578
O 2.312946 3.704794 3.178218
Zn 0.871204 5.210505 7.451272
O 0.871204 5.210505 5.304116
Zn 2.312946 3.704794 5.325374
O 2.312946 3.704794 7.430014
Zn 0.871204 5.210505 11.703068
O 0.871204 5.210505 9.555912
Zn 2.312946 3.704794 9.577170
O 2.312946 3.704794 11.681810
Zn -2.052986 8.182271 3.199476
O -2.052986 8.182271 1.052320
Zn -0.611244 6.676561 1.073578
O -0.611244 6.676561 3.178218
Zn -2.052986 8.182271 7.451272
O -2.052986 8.182271 5.304116
Zn -0.611244 6.676561 5.325374
O -0.611244 6.676561 7.430014
Zn -2.052986 8.182271 11.703068
O -2.052986 8.182271 9.555912
Zn -0.611244 6.676561 9.577170
O -0.611244 6.676561 11.681810
