108
A
Zn -1.854103 2.268923 1.468032
O -1.854103 2.268923 -0.945373
Zn -0.731692 0.661798 2.455374
O -0.731692 0.661798 0.041969
Zn -1.854103 2.268923 5.968553
O -1.854103 2.268923 3.555148
Zn -0.731692 0.661798 6.955895
O -0.731692 0.661798 4.542490
Zn -1.854103 2.268923 10.469074
O -1.854103 2.268923 8.055669
Zn -0.731692 0.661798 11.456416
O -0.731692 0.661798 9.043011
Zn -4.439897 5.199643 -1.522488
O -4.439897 5.199643 -3.935893
Zn -3.317486 3.592518 -0.535146
O -3.317486 3.592518 -2.948551
Zn -4.439897 5.199643 2.978033
O -4.439897 5.199643 0.564628
Zn -3.317486 3.592518 3.965375
O -3.317486 3.592518 1.551970
Zn -4.439897 5.199643 7.478554
O -4.439897 5.199643 5.065149
Zn -3.317486 3.592518 8.465896
O -3.317486 3.592518 6.052491
Zn -7.025692 8.130363 -4.513008
O -7.025692 8.130363 -6.926413
Zn -5.903281 6.523238 -3.525666
O -5.903281 6.523238 -5.939071
Zn -7.025692 8.130363 -0.012487
O -7.025692 8.130363 -2.425892
Zn -5.903281 6.523238 0.974855
O -5.903281 6.523238 -1.438550
Zn -7.025692 8.130363 4.488034
O -7.025692 8.130363 2.074629
Zn -5.903281 6.523238 5.475376
O -5.903281 6.523238 3.061971
Zn 1.202869 2.268923 1.468032
O 1.202869 2.268923 -0.945373
Zn 2.325280 0.661798 2.455374
O 2.325280 0.661798 0.041969
Zn 1.202869 2.268923 5.968553
O 1.202869 2.268923 3.555148
Zn 2.325280 0.661798 6.955895
O 2.325280 0.661798 4.542490
Zn 1.202869 2.268923 10.469074
O 1.202869 2.268923 8.055669
Zn 2.325280 0.661798 11.456416
O 2.325280 0.661798 9.043011
Zn -1.382925 5.199643 -1.522488
O -1.382925 5.199643 -3.935893
Zn -0.260514 3.592518 -0.535146
O -0.260514 3.592518 -2.948551
Zn -1.382925 5.199643 2.978033
O -1.382925 5.199643 0.564628
Zn -0.260514 3.592518 3.965375
O -0.260514 3.592518 1.551970
Zn -1.382925 5.199643 7.478554
O -1.382925 5.199643 5.065149
Zn -0.260514 3.592518 8.465896
O -0.260514 3.592518 6.052491
Zn -3.968720 8.130363 -4.513008
O -3.968720 8.130363 -6.926413
Zn -2.846309 6.523238 -3.525666
O -2.846309 6.523238 -5.939071
Zn -3.968720 8.130363 -0.012487
O -3.968720 8.130363 -2.425892
Zn -2.846309 6.523238 0.974855
O -2.846309 6.523238 -1.438550
Zn -3.968720 8.130363 4.488034
O -3.968720 8.130363 2.074629
Zn -2.846309 6.523238 5.475376
O -2.846309 6.523238 3.061971
Zn 4.259841 2.268923 1.468032
O 4.259841 2.268923 -0.945373
Zn 5.382252 0.661798 2.455374
O 5.382252 0.661798 0.041969
Zn 4.259841 2.268923 5.968553
O 4.259841 2.268923 3.555148
Zn 5.382252 0.661798 6.955895
O 5.382252 0.661798 4.542490
Zn 4.259841 2.268923 10.469074
O 4.259841 2.268923 8.055669
Zn 5.382252 0.661798 11.456416
O 5.382252 0.661798 9.043011
Zn 1.674047 5.199643 -1.522488
O 1.674047 5.199643 -3.935893
Zn 2.796458 3.592518 -0.535146
O 2.796458 3.592518 -2.948551
Zn 1.674047 5.199643 2.978033
O 1.674047 5.199643 0.564628
Zn 2.796458 3.592518 3.965375
O 2.796458 3.592518 1.551970
Zn 1.674047 5.199643 7.478554
O 1.674047 5.199643 5.065149
Zn 2.796458 3.592518 8.465896
O 2.796458 3.592518 6.052491
Zn -0.911748 8.130363 -4.513008
O -0.911748 8.130363 -6.926413
Zn 0.210663 6.523238 -3.525666
O 0.210663 6.523238 -5.939071
Zn -0.911748 8.130363 -0.012487
O -0.911748 8.130363 -2.425892
Zn 0.210663 6.523238 0.974855
O 0.210663 6.523238 -1.438550
Zn -0.911748 8.130363 4.488034
O -0.911748 8.130363 2.074629
Zn 0.210663 6.523238 5.475376
O 0.210663 6.523238 3.061971
