108
A
Zn -1.015034 2.332358 4.738235
O -1.015034 2.332358 1.647268
Zn -0.785682 0.503136 2.882735
O -0.785682 0.503136 -0.208232
Zn -1.015034 2.332358 9.815798
O -1.015034 2.332358 6.724831
Zn -0.785682 0.503136 7.960298
O -0.785682 0.503136 4.869331
Zn -1.015034 2.332358 14.893361
O -1.015034 2.332358 11.802394
Zn -0.785682 0.503136 13.037861
O -0.785682 0.503136 9.946894
Zn -2.815750 5.167851 4.190675
O -2.815750 5.167851 1.099708
Zn -2.586398 3.338629 2.335175
O -2.586398 3.338629 -0.755792
Zn -2.815750 5.167851 9.268238
O -2.815750 5.167851 6.177271
Zn -2.586398 3.338629 7.412738
O -2.586398 3.338629 4.321771
Zn -2.815750 5.167851 14.345801
O -2.815750 5.167851 11.254834
Zn -2.586398 3.338629 12.490301
O -2.586398 3.338629 9.399334
Zn -4.616466 8.003345 3.643115
O -4.616466 8.003345 0.552148
Zn -4.387114 6.174123 1.787615
O -4.387114 6.174123 -1.303352
Zn -4.616466 8.003345 8.720678
O -4.616466 8.003345 5.629711
Zn -4.387114 6.174123 6.865178
O -4.387114 6.174123 3.774211
Zn -4.616466 8.003345 13.798241
O -4.616466 8.003345 10.707274
Zn -4.387114 6.174123 11.942741
O -4.387114 6.174123 8.851774
Zn 2.199214 2.332358 4.738235
O 2.199214 2.332358 1.647268
Zn 2.428567 0.503136 2.882735
O 2.428567 0.503136 -0.208232
Zn 2.199214 2.332358 9.815798
O 2.199214 2.332358 6.724831
Zn 2.428567 0.503136 7.960298
O 2.428567 0.503136 4.869331
Zn 2.199214 2.332358 14.893361
O 2.199214 2.332358 11.802394
Zn 2.428567 0.503136 13.037861
O 2.428567 0.503136 9.946894
Zn 0.398498 5.167851 4.190675
O 0.398498 5.167851 1.099708
Zn 0.627851 3.338629 2.335175
O 0.627851 3.338629 -0.755792
Zn 0.398498 5.167851 9.268238
O 0.398498 5.167851 6.177271
Zn 0.627851 3.338629 7.412738
O 0.627851 3.338629 4.321771
Zn 0.398498 5.167851 14.345801
O 0.398498 5.167851 11.254834
Zn 0.627851 3.338629 12.490301
O 0.627851 3.338629 9.399334
Zn -1.402217 8.003345 3.643115
O -1.402217 8.003345 0.552148
Zn -1.172865 6.174123 1.787615
O -1.172865 6.174123 -1.303352
Zn -1.402217 8.003345 8.720678
O -1.402217 8.003345 5.629711
Zn -1.172865 6.174123 6.865178
O -1.172865 6.174123 3.774211
Zn -1.402217 8.003345 13.798241
O -1.402217 8.003345 10.707274
Zn -1.172865 6.174123 11.942741
O -1.172865 6.174123 8.851774
Zn 5.413463 2.332358 4.738235
O 5.413463 2.332358 1.647268
Zn 5.642815 0.503136 2.882735
O 5.642815 0.503136 -0.208232
Zn 5.413463 2.332358 9.815798
O 5.413463 2.332358 6.724831
Zn 5.642815 0.503136 7.960298
O 5.642815 0.503136 4.869331
Zn 5.413463 2.332358 14.893361
O 5.413463 2.332358 11.802394
Zn 5.642815 0.503136 13.037861
O 5.642815 0.503136 9.946894
Zn 3.612747 5.167851 4.190675
O 3.612747 5.167851 1.099708
Zn 3.842099 3.338629 2.335175
O 3.842099 3.338629 -0.755792
Zn 3.612747 5.167851 9.268238
O 3.612747 5.167851 6.177271
Zn 3.842099 3.338629 7.412738
O 3.842099 3.338629 4.321771
Zn 3.612747 5.167851 14.345801
O 3.612747 5.167851 11.254834
Zn 3.842099 3.338629 12.490301
O 3.842099 3.338629 9.399334
Zn 1.812031 8.003345 3.643115
O 1.812031 8.003345 0.552148
Zn 2.041383 6.174123 1.787615
O 2.041383 6.174123 -1.303352
Zn 1.812031 8.003345 8.720678
O 1.812031 8.003345 5.629711
Zn 2.041383 6.174123 6.865178
O 2.041383 6.174123 3.774211
Zn 1.812031 8.003345 13.798241
O 1.812031 8.003345 10.707274
Zn 2.041383 6.174123 11.942741
O 2.041383 6.174123 8.851774
