108
A
Zn -2.040701 2.252230 0.745421
O -2.040701 2.252230 -1.516970
Zn -0.734595 0.701476 2.298005
O -0.734595 0.701476 0.035614
Zn -2.040701 2.252230 5.106656
O -2.040701 2.252230 2.844265
Zn -0.734595 0.701476 6.659240
O -0.734595 0.701476 4.396849
Zn -2.040701 2.252230 9.467891
O -2.040701 2.252230 7.205500
Zn -0.734595 0.701476 11.020475
O -0.734595 0.701476 8.758084
Zn -4.815997 5.205937 -2.834779
O -4.815997 5.205937 -5.097170
Zn -3.509892 3.655182 -1.282195
O -3.509892 3.655182 -3.544586
Zn -4.815997 5.205937 1.526456
O -4.815997 5.205937 -0.735935
Zn -3.509892 3.655182 3.079040
O -3.509892 3.655182 0.816649
Zn -4.815997 5.205937 5.887691
O -4.815997 5.205937 3.625300
Zn -3.509892 3.655182 7.440275
O -3.509892 3.655182 5.177884
Zn -7.591293 8.159643 -6.414979
O -7.591293 8.159643 -8.677370
Zn -6.285188 6.608888 -4.862395
O -6.285188 6.608888 -7.124786
Zn -7.591293 8.159643 -2.053744
O -7.591293 8.159643 -4.316135
Zn -6.285188 6.608888 -0.501160
O -6.285188 6.608888 -2.763551
Zn -7.591293 8.159643 2.307491
O -7.591293 8.159643 0.045100
Zn -6.285188 6.608888 3.860075
O -6.285188 6.608888 1.597684
Zn 0.978308 2.252230 0.745421
O 0.978308 2.252230 -1.516970
Zn 2.284413 0.701476 2.298005
O 2.284413 0.701476 0.035614
Zn 0.978308 2.252230 5.106656
O 0.978308 2.252230 2.844265
Zn 2.284413 0.701476 6.659240
O 2.284413 0.701476 4.396849
Zn 0.978308 2.252230 9.467891
O 0.978308 2.252230 7.205500
Zn 2.284413 0.701476 11.020475
O 2.284413 0.701476 8.758084
Zn -1.796988 5.205937 -2.834779
O -1.796988 5.205937 -5.097170
Zn -0.490883 3.655182 -1.282195
O -0.490883 3.655182 -3.544586
Zn -1.796988 5.205937 1.526456
O -1.796988 5.205937 -0.735935
Zn -0.490883 3.655182 3.079040
O -0.490883 3.655182 0.816649
Zn -1.796988 5.205937 5.887691
O -1.796988 5.205937 3.625300
Zn -0.490883 3.655182 7.440275
O -0.490883 3.655182 5.177884
Zn -4.572284 8.159643 -6.414979
O -4.572284 8.159643 -8.677370
Zn -3.266179 6.608888 -4.862395
O -3.266179 6.608888 -7.124786
Zn -4.572284 8.159643 -2.053744
O -4.572284 8.159643 -4.316135
Zn -3.266179 6.608888 -0.501160
O -3.266179 6.608888 -2.763551
Zn -4.572284 8.159643 2.307491
O -4.572284 8.159643 0.045100
Zn -3.266179 6.608888 3.860075
O -3.266179 6.608888 1.597684
Zn 3.997317 2.252230 0.745421
O 3.997317 2.252230 -1.516970
Zn 5.303422 0.701476 2.298005
O 5.303422 0.701476 0.035614
Zn 3.997317 2.252230 5.106656
O 3.997317 2.252230 2.844265
Zn 5.303422 0.701476 6.659240
O 5.303422 0.701476 4.396849
Zn 3.997317 2.252230 9.467891
O 3.997317 2.252230 7.205500
Zn 5.303422 0.701476 11.020475
O 5.303422 0.701476 8.758084
Zn 1.222020 5.205937 -2.834779
O 1.222020 5.205937 -5.097170
Zn 2.528126 3.655182 -1.282195
O 2.528126 3.655182 -3.544586
Zn 1.222020 5.205937 1.526456
O 1.222020 5.205937 -0.735935
Zn 2.528126 3.655182 3.079040
O 2.528126 3.655182 0.816649
Zn 1.222020 5.205937 5.887691
O 1.222020 5.205937 3.625300
Zn 2.528126 3.655182 7.440275
O 2.528126 3.655182 5.177884
Zn -1.553276 8.159643 -6.414979
O -1.553276 8.159643 -8.677370
Zn -0.247170 6.608888 -4.862395
O -0.247170 6.608888 -7.124786
Zn -1.553276 8.159643 -2.053744
O -1.553276 8.159643 -4.316135
Zn -0.247170 6.608888 -0.501160
O -0.247170 6.608888 -2.763551
Zn -1.553276 8.159643 2.307491
O -1.553276 8.159643 0.045100
Zn -0.247170 6.608888 3.860075
O -0.247170 6.608888 1.597684
