108
A
Zn -2.233750 2.233750 -0.000000
O -2.233750 2.233750 -2.106000
Zn -0.744583 0.744583 2.106000
O -0.744583 0.744583 0.000000
Zn -2.233750 2.233750 4.212000
O -2.233750 2.233750 2.106000
Zn -0.744583 0.744583 6.318000
O -0.744583 0.744583 4.212000
Zn -2.233750 2.233750 8.424000
O -2.233750 2.233750 6.318000
Zn -0.744583 0.744583 10.530000
O -0.744583 0.744583 8.424000
Zn -5.212084 5.212084 -4.212000
O -5.212084 5.212084 -6.318000
Zn -3.722917 3.722917 -2.106000
O -3.722917 3.722917 -4.212000
Zn -5.212084 5.212084 -0.000000
O -5.212084 5.212084 -2.106000
Zn -3.722917 3.722917 2.106000
O -3.722917 3.722917 -0.000000
Zn -5.212084 5.212084 4.212000
O -5.212084 5.212084 2.106000
Zn -3.722917 3.722917 6.318000
O -3.722917 3.722917 4.212000
Zn -8.190418 8.190418 -8.424000
O -8.190418 8.190418 -10.530000
Zn -6.701251 6.701251 -6.318000
O -6.701251 6.701251 -8.424000
Zn -8.190418 8.190418 -4.212000
O -8.190418 8.190418 -6.318000
Zn -6.701251 6.701251 -2.106000
O -6.701251 6.701251 -4.212000
Zn -8.190418 8.190418 -0.000000
O -8.190418 8.190418 -2.106000
Zn -6.701251 6.701251 2.106000
O -6.701251 6.701251 -0.000000
Zn 0.744583 2.233750 -0.000000
O 0.744583 2.233750 -2.106000
Zn 2.233750 0.744583 2.106000
O 2.233750 0.744583 0.000000
Zn 0.744583 2.233750 4.212000
O 0.744583 2.233750 2.106000
Zn 2.233750 0.744583 6.318000
O 2.233750 0.744583 4.212000
Zn 0.744583 2.233750 8.424000
O 0.744583 2.233750 6.318000
Zn 2.233750 0.744583 10.530000
O 2.233750 0.744583 8.424000
Zn -2.233750 5.212084 -4.212000
O -2.233750 5.212084 -6.318000
Zn -0.744583 3.722917 -2.106000
O -0.744583 3.722917 -4.212000
Zn -2.233750 5.212084 -0.000000
O -2.233750 5.212084 -2.106000
Zn -0.744583 3.722917 2.106000
O -0.744583 3.722917 0.000000
Zn -2.233750 5.212084 4.212000
O -2.233750 5.212084 2.106000
Zn -0.744583 3.722917 6.318000
O -0.744583 3.722917 4.212000
Zn -5.212084 8.190418 -8.424000
O -5.212084 8.190418 -10.530000
Zn -3.722917 6.701251 -6.318000
O -3.722917 6.701251 -8.424000
Zn -5.212084 8.190418 -4.212000
O -5.212084 8.190418 -6.318000
Zn -3.722917 6.701251 -2.106000
O -3.722917 6.701251 -4.212000
Zn -5.212084 8.190418 -0.000000
O -5.212084 8.190418 -2.106000
Zn -3.722917 6.701251 2.106000
O -3.722917 6.701251 0.000000
Zn 3.722917 2.233750 0.000000
O 3.722917 2.233750 -2.106000
Zn 5.212084 0.744583 2.106000
O 5.212084 0.744583 0.000000
Zn 3.722917 2.233750 4.212000
O 3.722917 2.233750 2.106000
Zn 5.212084 0.744583 6.318000
O 5.212084 0.744583 4.212000
Zn 3.722917 2.233750 8.424000
O 3.722917 2.233750 6.318000
Zn 5.212084 0.744583 10.530000
O 5.212084 0.744583 8.424000
Zn 0.744583 5.212084 -4.212000
O 0.744583 5.212084 -6.318000
Zn 2.233750 3.722917 -2.106000
O 2.233750 3.722917 -4.212000
Zn 0.744583 5.212084 0.000000
O 0.744583 5.212084 -2.106000
Zn 2.233750 3.722917 2.106000
O 2.233750 3.722917 0.000000
Zn 0.744583 5.212084 4.212000
O 0.744583 5.212084 2.106000
Zn 2.233750 3.722917 6.318000
O 2.233750 3.722917 4.212000
Zn -2.233750 8.190418 -8.424000
O -2.233750 8.190418 -10.530000
Zn -0.744583 6.701251 -6.318000
O -0.744583 6.701251 -8.424000
Zn -2.233750 8.190418 -4.212000
O -2.233750 8.190418 -6.318000
Zn -0.744583 6.701251 -2.106000
O -0.744583 6.701251 -4.212000
Zn -2.233750 8.190418 -0.000000
O -2.233750 8.190418 -2.106000
Zn -0.744583 6.701251 2.106000
O -0.744583 6.701251 0.000000
