108
A
Zn -1.476734 2.299599 2.934943
O -1.476734 2.299599 0.216531
Zn -0.743593 0.586792 2.699333
O -0.743593 0.586792 -0.019079
Zn -1.476734 2.299599 7.704087
O -1.476734 2.299599 4.985675
Zn -0.743593 0.586792 7.468477
O -0.743593 0.586792 4.750065
Zn -1.476734 2.299599 12.473231
O -1.476734 2.299599 9.754819
Zn -0.743593 0.586792 12.237621
O -0.743593 0.586792 9.519209
Zn -3.697061 5.185990 1.081663
O -3.697061 5.185990 -1.636749
Zn -2.963920 3.473182 0.846053
O -2.963920 3.473182 -1.872359
Zn -3.697061 5.185990 5.850807
O -3.697061 5.185990 3.132395
Zn -2.963920 3.473182 5.615197
O -2.963920 3.473182 2.896785
Zn -3.697061 5.185990 10.619951
O -3.697061 5.185990 7.901539
Zn -2.963920 3.473182 10.384341
O -2.963920 3.473182 7.665929
Zn -5.917388 8.072380 -0.771617
O -5.917388 8.072380 -3.490029
Zn -5.184246 6.359573 -1.007227
O -5.184246 6.359573 -3.725639
Zn -5.917388 8.072380 3.997527
O -5.917388 8.072380 1.279115
Zn -5.184246 6.359573 3.761917
O -5.184246 6.359573 1.043505
Zn -5.917388 8.072380 8.766671
O -5.917388 8.072380 6.048259
Zn -5.184246 6.359573 8.531061
O -5.184246 6.359573 5.812649
Zn 1.653453 2.299599 2.934943
O 1.653453 2.299599 0.216531
Zn 2.386594 0.586792 2.699333
O 2.386594 0.586792 -0.019079
Zn 1.653453 2.299599 7.704087
O 1.653453 2.299599 4.985675
Zn 2.386594 0.586792 7.468477
O 2.386594 0.586792 4.750065
Zn 1.653453 2.299599 12.473231
O 1.653453 2.299599 9.754819
Zn 2.386594 0.586792 12.237621
O 2.386594 0.586792 9.519209
Zn -0.566874 5.185990 1.081663
O -0.566874 5.185990 -1.636749
Zn 0.166267 3.473182 0.846053
O 0.166267 3.473182 -1.872359
Zn -0.566874 5.185990 5.850807
O -0.566874 5.185990 3.132395
Zn 0.166267 3.473182 5.615197
O 0.166267 3.473182 2.896785
Zn -0.566874 5.185990 10.619951
O -0.566874 5.185990 7.901539
Zn 0.166267 3.473182 10.384341
O 0.166267 3.473182 7.665929
Zn -2.787201 8.072380 -0.771617
O -2.787201 8.072380 -3.490029
Zn -2.054060 6.359573 -1.007227
O -2.054060 6.359573 -3.725639
Zn -2.787201 8.072380 3.997527
O -2.787201 8.072380 1.279115
Zn -2.054060 6.359573 3.761917
O -2.054060 6.359573 1.043505
Zn -2.787201 8.072380 8.766671
O -2.787201 8.072380 6.048259
Zn -2.054060 6.359573 8.531061
O -2.054060 6.359573 5.812649
Zn 4.783640 2.299599 2.934943
O 4.783640 2.299599 0.216531
Zn 5.516781 0.586792 2.699333
O 5.516781 0.586792 -0.019079
Zn 4.783640 2.299599 7.704087
O 4.783640 2.299599 4.985675
Zn 5.516781 0.586792 7.468477
O 5.516781 0.586792 4.750065
Zn 4.783640 2.299599 12.473231
O 4.783640 2.299599 9.754819
Zn 5.516781 0.586792 12.237621
O 5.516781 0.586792 9.519209
Zn 2.563313 5.185990 1.081663
O 2.563313 5.185990 -1.636749
Zn 3.296454 3.473182 0.846053
O 3.296454 3.473182 -1.872359
Zn 2.563313 5.185990 5.850807
O 2.563313 5.185990 3.132395
Zn 3.296454 3.473182 5.615197
O 3.296454 3.473182 2.896785
Zn 2.563313 5.185990 10.619951
O 2.563313 5.185990 7.901539
Zn 3.296454 3.473182 10.384341
O 3.296454 3.473182 7.665929
Zn 0.342986 8.072380 -0.771617
O 0.342986 8.072380 -3.490029
Zn 1.076127 6.359573 -1.007227
O 1.076127 6.359573 -3.725639
Zn 0.342986 8.072380 3.997527
O 0.342986 8.072380 1.279115
Zn 1.076127 6.359573 3.761917
O 1.076127 6.359573 1.043505
Zn 0.342986 8.072380 8.766671
O 0.342986 8.072380 6.048259
Zn 1.076127 6.359573 8.531061
O 1.076127 6.359573 5.812649
