108
A
Zn -1.703142 2.281661 2.054008
O -1.703142 2.281661 -0.481470
Zn -0.733758 0.630999 2.564230
O -0.733758 0.630999 0.028752
Zn -1.703142 2.281661 6.663968
O -1.703142 2.281661 4.128490
Zn -0.733758 0.630999 7.174190
O -0.733758 0.630999 4.638712
Zn -1.703142 2.281661 11.273928
O -1.703142 2.281661 8.738450
Zn -0.733758 0.630999 11.784150
O -0.733758 0.630999 9.248672
Zn -4.140043 5.194321 -0.473192
O -4.140043 5.194321 -3.008670
Zn -3.170658 3.543659 0.037030
O -3.170658 3.543659 -2.498448
Zn -4.140043 5.194321 4.136768
O -4.140043 5.194321 1.601290
Zn -3.170658 3.543659 4.646990
O -3.170658 3.543659 2.111512
Zn -4.140043 5.194321 8.746728
O -4.140043 5.194321 6.211250
Zn -3.170658 3.543659 9.256950
O -3.170658 3.543659 6.721472
Zn -6.576943 8.106982 -3.000392
O -6.576943 8.106982 -5.535870
Zn -5.607558 6.456319 -2.490170
O -5.607558 6.456319 -5.025648
Zn -6.576943 8.106982 1.609568
O -6.576943 8.106982 -0.925910
Zn -5.607558 6.456319 2.119790
O -5.607558 6.456319 -0.415688
Zn -6.576943 8.106982 6.219528
O -6.576943 8.106982 3.684050
Zn -5.607558 6.456319 6.729750
O -5.607558 6.456319 4.194272
Zn 1.383658 2.281661 2.054008
O 1.383658 2.281661 -0.481470
Zn 2.353042 0.630999 2.564230
O 2.353042 0.630999 0.028752
Zn 1.383658 2.281661 6.663968
O 1.383658 2.281661 4.128490
Zn 2.353042 0.630999 7.174190
O 2.353042 0.630999 4.638712
Zn 1.383658 2.281661 11.273928
O 1.383658 2.281661 8.738450
Zn 2.353042 0.630999 11.784150
O 2.353042 0.630999 9.248672
Zn -1.053242 5.194321 -0.473192
O -1.053242 5.194321 -3.008670
Zn -0.083858 3.543659 0.037030
O -0.083858 3.543659 -2.498448
Zn -1.053242 5.194321 4.136768
O -1.053242 5.194321 1.601290
Zn -0.083858 3.543659 4.646990
O -0.083858 3.543659 2.111512
Zn -1.053242 5.194321 8.746728
O -1.053242 5.194321 6.211250
Zn -0.083858 3.543659 9.256950
O -0.083858 3.543659 6.721472
Zn -3.490143 8.106982 -3.000392
O -3.490143 8.106982 -5.535870
Zn -2.520758 6.456319 -2.490170
O -2.520758 6.456319 -5.025648
Zn -3.490143 8.106982 1.609568
O -3.490143 8.106982 -0.925910
Zn -2.520758 6.456319 2.119790
O -2.520758 6.456319 -0.415688
Zn -3.490143 8.106982 6.219528
O -3.490143 8.106982 3.684050
Zn -2.520758 6.456319 6.729750
O -2.520758 6.456319 4.194272
Zn 4.470458 2.281661 2.054008
O 4.470458 2.281661 -0.481470
Zn 5.439843 0.630999 2.564230
O 5.439843 0.630999 0.028752
Zn 4.470458 2.281661 6.663968
O 4.470458 2.281661 4.128490
Zn 5.439843 0.630999 7.174190
O 5.439843 0.630999 4.638712
Zn 4.470458 2.281661 11.273928
O 4.470458 2.281661 8.738450
Zn 5.439843 0.630999 11.784150
O 5.439843 0.630999 9.248672
Zn 2.033558 5.194321 -0.473192
O 2.033558 5.194321 -3.008670
Zn 3.002942 3.543659 0.037030
O 3.002942 3.543659 -2.498448
Zn 2.033558 5.194321 4.136768
O 2.033558 5.194321 1.601290
Zn 3.002942 3.543659 4.646990
O 3.002942 3.543659 2.111512
Zn 2.033558 5.194321 8.746728
O 2.033558 5.194321 6.211250
Zn 3.002942 3.543659 9.256950
O 3.002942 3.543659 6.721472
Zn -0.403342 8.106982 -3.000392
O -0.403342 8.106982 -5.535870
Zn 0.566042 6.456319 -2.490170
O 0.566042 6.456319 -5.025648
Zn -0.403342 8.106982 1.609568
O -0.403342 8.106982 -0.925910
Zn 0.566042 6.456319 2.119790
O 0.566042 6.456319 -0.415688
Zn -0.403342 8.106982 6.219528
O -0.403342 8.106982 3.684050
Zn 0.566042 6.456319 6.729750
O 0.566042 6.456319 4.194272
