108
A
Zn -1.758480 2.277067 1.839071
O -1.758480 2.277067 -0.651668
Zn -0.732564 0.642160 2.526152
O -0.732564 0.642160 0.035413
Zn -1.758480 2.277067 6.409235
O -1.758480 2.277067 3.918496
Zn -0.732564 0.642160 7.096316
O -0.732564 0.642160 4.605577
Zn -1.758480 2.277067 10.979399
O -1.758480 2.277067 8.488660
Zn -0.732564 0.642160 11.666480
O -0.732564 0.642160 9.175741
Zn -4.249523 5.196295 -0.856609
O -4.249523 5.196295 -3.347348
Zn -3.223608 3.561387 -0.169528
O -3.223608 3.561387 -2.660267
Zn -4.249523 5.196295 3.713555
O -4.249523 5.196295 1.222816
Zn -3.223608 3.561387 4.400636
O -3.223608 3.561387 1.909897
Zn -4.249523 5.196295 8.283719
O -4.249523 5.196295 5.792980
Zn -3.223608 3.561387 8.970800
O -3.223608 3.561387 6.480061
Zn -6.740567 8.115522 -3.552289
O -6.740567 8.115522 -6.043028
Zn -5.714651 6.480615 -2.865208
O -5.714651 6.480615 -5.355947
Zn -6.740567 8.115522 1.017875
O -6.740567 8.115522 -1.472864
Zn -5.714651 6.480615 1.704956
O -5.714651 6.480615 -0.785783
Zn -6.740567 8.115522 5.588039
O -6.740567 8.115522 3.097300
Zn -5.714651 6.480615 6.275120
O -5.714651 6.480615 3.784381
Zn 1.317474 2.277067 1.839071
O 1.317474 2.277067 -0.651668
Zn 2.343390 0.642160 2.526152
O 2.343390 0.642160 0.035413
Zn 1.317474 2.277067 6.409235
O 1.317474 2.277067 3.918496
Zn 2.343390 0.642160 7.096316
O 2.343390 0.642160 4.605577
Zn 1.317474 2.277067 10.979399
O 1.317474 2.277067 8.488660
Zn 2.343390 0.642160 11.666480
O 2.343390 0.642160 9.175741
Zn -1.173570 5.196295 -0.856609
O -1.173570 5.196295 -3.347348
Zn -0.147654 3.561387 -0.169528
O -0.147654 3.561387 -2.660267
Zn -1.173570 5.196295 3.713555
O -1.173570 5.196295 1.222816
Zn -0.147654 3.561387 4.400636
O -0.147654 3.561387 1.909897
Zn -1.173570 5.196295 8.283719
O -1.173570 5.196295 5.792980
Zn -0.147654 3.561387 8.970800
O -0.147654 3.561387 6.480061
Zn -3.664613 8.115522 -3.552289
O -3.664613 8.115522 -6.043028
Zn -2.638698 6.480615 -2.865208
O -2.638698 6.480615 -5.355947
Zn -3.664613 8.115522 1.017875
O -3.664613 8.115522 -1.472864
Zn -2.638698 6.480615 1.704956
O -2.638698 6.480615 -0.785783
Zn -3.664613 8.115522 5.588039
O -3.664613 8.115522 3.097300
Zn -2.638698 6.480615 6.275120
O -2.638698 6.480615 3.784381
Zn 4.393428 2.277067 1.839071
O 4.393428 2.277067 -0.651668
Zn 5.419343 0.642160 2.526152
O 5.419343 0.642160 0.035413
Zn 4.393428 2.277067 6.409235
O 4.393428 2.277067 3.918496
Zn 5.419343 0.642160 7.096316
O 5.419343 0.642160 4.605577
Zn 4.393428 2.277067 10.979399
O 4.393428 2.277067 8.488660
Zn 5.419343 0.642160 11.666480
O 5.419343 0.642160 9.175741
Zn 1.902384 5.196295 -0.856609
O 1.902384 5.196295 -3.347348
Zn 2.928300 3.561387 -0.169528
O 2.928300 3.561387 -2.660267
Zn 1.902384 5.196295 3.713555
O 1.902384 5.196295 1.222816
Zn 2.928300 3.561387 4.400636
O 2.928300 3.561387 1.909897
Zn 1.902384 5.196295 8.283719
O 1.902384 5.196295 5.792980
Zn 2.928300 3.561387 8.970800
O 2.928300 3.561387 6.480061
Zn -0.588660 8.115522 -3.552289
O -0.588660 8.115522 -6.043028
Zn 0.437256 6.480615 -2.865208
O 0.437256 6.480615 -5.355947
Zn -0.588660 8.115522 1.017875
O -0.588660 8.115522 -1.472864
Zn 0.437256 6.480615 1.704956
O 0.437256 6.480615 -0.785783
Zn -0.588660 8.115522 5.588039
O -0.588660 8.115522 3.097300
Zn 0.437256 6.480615 6.275120
O 0.437256 6.480615 3.784381
