108
A
Zn -1.227306 2.317889 3.908085
O -1.227306 2.317889 0.988328
Zn -0.762911 0.540590 2.812709
O -0.762911 0.540590 -0.107048
Zn -1.227306 2.317889 8.846362
O -1.227306 2.317889 5.926605
Zn -0.762911 0.540590 7.750986
O -0.762911 0.540590 4.831229
Zn -1.227306 2.317889 13.784639
O -1.227306 2.317889 10.864882
Zn -0.762911 0.540590 12.689263
O -0.762911 0.540590 9.769506
Zn -3.217524 5.176369 2.770845
O -3.217524 5.176369 -0.148912
Zn -2.753129 3.399069 1.675469
O -2.753129 3.399069 -1.244288
Zn -3.217524 5.176369 7.709122
O -3.217524 5.176369 4.789365
Zn -2.753129 3.399069 6.613746
O -2.753129 3.399069 3.693989
Zn -3.217524 5.176369 12.647399
O -3.217524 5.176369 9.727642
Zn -2.753129 3.399069 11.552023
O -2.753129 3.399069 8.632266
Zn -5.207742 8.034848 1.633605
O -5.207742 8.034848 -1.286152
Zn -4.743347 6.257548 0.538229
O -4.743347 6.257548 -2.381528
Zn -5.207742 8.034848 6.571882
O -5.207742 8.034848 3.652125
Zn -4.743347 6.257548 5.476506
O -4.743347 6.257548 2.556749
Zn -5.207742 8.034848 11.510159
O -5.207742 8.034848 8.590402
Zn -4.743347 6.257548 10.414783
O -4.743347 6.257548 7.495026
Zn 1.948979 2.317889 3.908085
O 1.948979 2.317889 0.988328
Zn 2.413374 0.540590 2.812709
O 2.413374 0.540590 -0.107048
Zn 1.948979 2.317889 8.846362
O 1.948979 2.317889 5.926605
Zn 2.413374 0.540590 7.750986
O 2.413374 0.540590 4.831229
Zn 1.948979 2.317889 13.784639
O 1.948979 2.317889 10.864882
Zn 2.413374 0.540590 12.689263
O 2.413374 0.540590 9.769506
Zn -0.041239 5.176369 2.770845
O -0.041239 5.176369 -0.148912
Zn 0.423156 3.399069 1.675469
O 0.423156 3.399069 -1.244288
Zn -0.041239 5.176369 7.709122
O -0.041239 5.176369 4.789365
Zn 0.423156 3.399069 6.613746
O 0.423156 3.399069 3.693989
Zn -0.041239 5.176369 12.647399
O -0.041239 5.176369 9.727642
Zn 0.423156 3.399069 11.552023
O 0.423156 3.399069 8.632266
Zn -2.031456 8.034848 1.633605
O -2.031456 8.034848 -1.286152
Zn -1.567061 6.257548 0.538229
O -1.567061 6.257548 -2.381528
Zn -2.031456 8.034848 6.571882
O -2.031456 8.034848 3.652125
Zn -1.567061 6.257548 5.476506
O -1.567061 6.257548 2.556749
Zn -2.031456 8.034848 11.510159
O -2.031456 8.034848 8.590402
Zn -1.567061 6.257548 10.414783
O -1.567061 6.257548 7.495026
Zn 5.125264 2.317889 3.908085
O 5.125264 2.317889 0.988328
Zn 5.589659 0.540590 2.812709
O 5.589659 0.540590 -0.107048
Zn 5.125264 2.317889 8.846362
O 5.125264 2.317889 5.926605
Zn 5.589659 0.540590 7.750986
O 5.589659 0.540590 4.831229
Zn 5.125264 2.317889 13.784639
O 5.125264 2.317889 10.864882
Zn 5.589659 0.540590 12.689263
O 5.589659 0.540590 9.769506
Zn 3.135046 5.176369 2.770845
O 3.135046 5.176369 -0.148912
Zn 3.599441 3.399069 1.675469
O 3.599441 3.399069 -1.244288
Zn 3.135046 5.176369 7.709122
O 3.135046 5.176369 4.789365
Zn 3.599441 3.399069 6.613746
O 3.599441 3.399069 3.693989
Zn 3.135046 5.176369 12.647399
O 3.135046 5.176369 9.727642
Zn 3.599441 3.399069 11.552023
O 3.599441 3.399069 8.632266
Zn 1.144829 8.034848 1.633605
O 1.144829 8.034848 -1.286152
Zn 1.609224 6.257548 0.538229
O 1.609224 6.257548 -2.381528
Zn 1.144829 8.034848 6.571882
O 1.144829 8.034848 3.652125
Zn 1.609224 6.257548 5.476506
O 1.609224 6.257548 2.556749
Zn 1.144829 8.034848 11.510159
O 1.144829 8.034848 8.590402
Zn 1.609224 6.257548 10.414783
O 1.609224 6.257548 7.495026
