108
A
Zn -1.988019 2.257054 0.949232
O -1.988019 2.257054 -1.355808
Zn -0.733133 0.690084 2.345119
O -0.733133 0.690084 0.040079
Zn -1.988019 2.257054 5.350263
O -1.988019 2.257054 3.045223
Zn -0.733133 0.690084 6.746150
O -0.733133 0.690084 4.441110
Zn -1.988019 2.257054 9.751294
O -1.988019 2.257054 7.446254
Zn -0.733133 0.690084 11.147181
O -0.733133 0.690084 8.842141
Zn -4.709172 5.204193 -2.462488
O -4.709172 5.204193 -4.767528
Zn -3.454286 3.637223 -1.066601
O -3.454286 3.637223 -3.371641
Zn -4.709172 5.204193 1.938543
O -4.709172 5.204193 -0.366497
Zn -3.454286 3.637223 3.334430
O -3.454286 3.637223 1.029390
Zn -4.709172 5.204193 6.339574
O -4.709172 5.204193 4.034534
Zn -3.454286 3.637223 7.735461
O -3.454286 3.637223 5.430421
Zn -7.430325 8.151332 -5.874208
O -7.430325 8.151332 -8.179248
Zn -6.175439 6.584362 -4.478321
O -6.175439 6.584362 -6.783361
Zn -7.430325 8.151332 -1.473177
O -7.430325 8.151332 -3.778217
Zn -6.175439 6.584362 -0.077290
O -6.175439 6.584362 -2.382330
Zn -7.430325 8.151332 2.927854
O -7.430325 8.151332 0.622814
Zn -6.175439 6.584362 4.323741
O -6.175439 6.584362 2.018701
Zn 1.041836 2.257054 0.949232
O 1.041836 2.257054 -1.355808
Zn 2.296722 0.690084 2.345119
O 2.296722 0.690084 0.040079
Zn 1.041836 2.257054 5.350263
O 1.041836 2.257054 3.045223
Zn 2.296722 0.690084 6.746150
O 2.296722 0.690084 4.441110
Zn 1.041836 2.257054 9.751294
O 1.041836 2.257054 7.446254
Zn 2.296722 0.690084 11.147181
O 2.296722 0.690084 8.842141
Zn -1.679317 5.204193 -2.462488
O -1.679317 5.204193 -4.767528
Zn -0.424431 3.637223 -1.066601
O -0.424431 3.637223 -3.371641
Zn -1.679317 5.204193 1.938543
O -1.679317 5.204193 -0.366497
Zn -0.424431 3.637223 3.334430
O -0.424431 3.637223 1.029390
Zn -1.679317 5.204193 6.339574
O -1.679317 5.204193 4.034534
Zn -0.424431 3.637223 7.735461
O -0.424431 3.637223 5.430421
Zn -4.400470 8.151332 -5.874208
O -4.400470 8.151332 -8.179248
Zn -3.145584 6.584362 -4.478321
O -3.145584 6.584362 -6.783361
Zn -4.400470 8.151332 -1.473177
O -4.400470 8.151332 -3.778217
Zn -3.145584 6.584362 -0.077290
O -3.145584 6.584362 -2.382330
Zn -4.400470 8.151332 2.927854
O -4.400470 8.151332 0.622814
Zn -3.145584 6.584362 4.323741
O -3.145584 6.584362 2.018701
Zn 4.071691 2.257054 0.949232
O 4.071691 2.257054 -1.355808
Zn 5.326577 0.690084 2.345119
O 5.326577 0.690084 0.040079
Zn 4.071691 2.257054 5.350263
O 4.071691 2.257054 3.045223
Zn 5.326577 0.690084 6.746150
O 5.326577 0.690084 4.441110
Zn 4.071691 2.257054 9.751294
O 4.071691 2.257054 7.446254
Zn 5.326577 0.690084 11.147181
O 5.326577 0.690084 8.842141
Zn 1.350538 5.204193 -2.462488
O 1.350538 5.204193 -4.767528
Zn 2.605424 3.637223 -1.066601
O 2.605424 3.637223 -3.371641
Zn 1.350538 5.204193 1.938543
O 1.350538 5.204193 -0.366497
Zn 2.605424 3.637223 3.334430
O 2.605424 3.637223 1.029390
Zn 1.350538 5.204193 6.339574
O 1.350538 5.204193 4.034534
Zn 2.605424 3.637223 7.735461
O 2.605424 3.637223 5.430421
Zn -1.370614 8.151332 -5.874208
O -1.370614 8.151332 -8.179248
Zn -0.115728 6.584362 -4.478321
O -0.115728 6.584362 -6.783361
Zn -1.370614 8.151332 -1.473177
O -1.370614 8.151332 -3.778217
Zn -0.115728 6.584362 -0.077290
O -0.115728 6.584362 -2.382330
Zn -1.370614 8.151332 2.927854
O -1.370614 8.151332 0.622814
Zn -0.115728 6.584362 4.323741
O -0.115728 6.584362 2.018701
