108
A
Zn -0.999635 2.333371 4.095447
O -0.999635 2.333371 0.992065
Zn -0.787545 0.500481 1.551691
O -0.787545 0.500481 3.535821
Zn -0.999635 2.333371 9.182959
O -0.999635 2.333371 6.079577
Zn -0.787545 0.500481 6.639203
O -0.787545 0.500481 8.623333
Zn -0.999635 2.333371 14.270471
O -0.999635 2.333371 11.167089
Zn -0.787545 0.500481 11.726715
O -0.787545 0.500481 13.710845
Zn -2.786815 5.167222 4.095447
O -2.786815 5.167222 0.992065
Zn -2.574726 3.334333 1.551691
O -2.574726 3.334333 3.535821
Zn -2.786815 5.167222 9.182959
O -2.786815 5.167222 6.079577
Zn -2.574726 3.334333 6.639203
O -2.574726 3.334333 8.623333
Zn -2.786815 5.167222 14.270471
O -2.786815 5.167222 11.167089
Zn -2.574726 3.334333 11.726715
O -2.574726 3.334333 13.710845
Zn -4.573995 8.001074 4.095447
O -4.573995 8.001074 0.992065
Zn -4.361906 6.168184 1.551691
O -4.361906 6.168184 3.535821
Zn -4.573995 8.001074 9.182959
O -4.573995 8.001074 6.079577
Zn -4.361906 6.168184 6.639203
O -4.361906 6.168184 8.623333
Zn -4.573995 8.001074 14.270471
O -4.573995 8.001074 11.167089
Zn -4.361906 6.168184 11.726715
O -4.361906 6.168184 13.710845
Zn 2.217325 2.333371 4.095447
O 2.217325 2.333371 0.992065
Zn 2.429415 0.500481 1.551691
O 2.429415 0.500481 3.535821
Zn 2.217325 2.333371 9.182959
O 2.217325 2.333371 6.079577
Zn 2.429415 0.500481 6.639203
O 2.429415 0.500481 8.623333
Zn 2.217325 2.333371 14.270471
O 2.217325 2.333371 11.167089
Zn 2.429415 0.500481 11.726715
O 2.429415 0.500481 13.710845
Zn 0.430145 5.167222 4.095447
O 0.430145 5.167222 0.992065
Zn 0.642235 3.334333 1.551691
O 0.642235 3.334333 3.535821
Zn 0.430145 5.167222 9.182959
O 0.430145 5.167222 6.079577
Zn 0.642235 3.334333 6.639203
O 0.642235 3.334333 8.623333
Zn 0.430145 5.167222 14.270471
O 0.430145 5.167222 11.167089
Zn 0.642235 3.334333 11.726715
O 0.642235 3.334333 13.710845
Zn -1.357035 8.001074 4.095447
O -1.357035 8.001074 0.992065
Zn -1.144946 6.168184 1.551691
O -1.144946 6.168184 3.535821
Zn -1.357035 8.001074 9.182959
O -1.357035 8.001074 6.079577
Zn -1.144946 6.168184 6.639203
O -1.144946 6.168184 8.623333
Zn -1.357035 8.001074 14.270471
O -1.357035 8.001074 11.167089
Zn -1.144946 6.168184 11.726715
O -1.144946 6.168184 13.710845
Zn 5.434286 2.333371 4.095447
O 5.434286 2.333371 0.992065
Zn 5.646375 0.500481 1.551691
O 5.646375 0.500481 3.535821
Zn 5.434286 2.333371 9.182959
O 5.434286 2.333371 6.079577
Zn 5.646375 0.500481 6.639203
O 5.646375 0.500481 8.623333
Zn 5.434286 2.333371 14.270471
O 5.434286 2.333371 11.167089
Zn 5.646375 0.500481 11.726715
O 5.646375 0.500481 13.710845
Zn 3.647105 5.167222 4.095447
O 3.647105 5.167222 0.992065
Zn 3.859195 3.334333 1.551691
O 3.859195 3.334333 3.535821
Zn 3.647105 5.167222 9.182959
O 3.647105 5.167222 6.079577
Zn 3.859195 3.334333 6.639203
O 3.859195 3.334333 8.623333
Zn 3.647105 5.167222 14.270471
O 3.647105 5.167222 11.167089
Zn 3.859195 3.334333 11.726715
O 3.859195 3.334333 13.710845
Zn 1.859925 8.001074 4.095447
O 1.859925 8.001074 0.992065
Zn 2.072015 6.168184 1.551691
O 2.072015 6.168184 3.535821
Zn 1.859925 8.001074 9.182959
O 1.859925 8.001074 6.079577
Zn 2.072015 6.168184 6.639203
O 2.072015 6.168184 8.623333
Zn 1.859925 8.001074 14.270471
O 1.859925 8.001074 11.167089
Zn 2.072015 6.168184 11.726715
O 2.072015 6.168184 13.710845
