108
A
Zn -2.053792 2.251018 0.694799
O -2.053792 2.251018 -1.556991
Zn -0.735040 0.704330 2.285957
O -0.735040 0.704330 0.034167
Zn -2.053792 2.251018 5.046085
O -2.053792 2.251018 2.794295
Zn -0.735040 0.704330 6.637243
O -0.735040 0.704330 4.385453
Zn -2.053792 2.251018 9.397371
O -2.053792 2.251018 7.145581
Zn -0.735040 0.704330 10.988529
O -0.735040 0.704330 8.736739
Zn -4.842624 5.206366 -2.927521
O -4.842624 5.206366 -5.179311
Zn -3.523872 3.659678 -1.336363
O -3.523872 3.659678 -3.588153
Zn -4.842624 5.206366 1.423765
O -4.842624 5.206366 -0.828025
Zn -3.523872 3.659678 3.014923
O -3.523872 3.659678 0.763133
Zn -4.842624 5.206366 5.775051
O -4.842624 5.206366 3.523261
Zn -3.523872 3.659678 7.366209
O -3.523872 3.659678 5.114419
Zn -7.631456 8.161714 -6.549841
O -7.631456 8.161714 -8.801631
Zn -6.312704 6.615026 -4.958683
O -6.312704 6.615026 -7.210473
Zn -7.631456 8.161714 -2.198555
O -7.631456 8.161714 -4.450345
Zn -6.312704 6.615026 -0.607397
O -6.312704 6.615026 -2.859187
Zn -7.631456 8.161714 2.152731
O -7.631456 8.161714 -0.099059
Zn -6.312704 6.615026 3.743889
O -6.312704 6.615026 1.492099
Zn 0.962505 2.251018 0.694799
O 0.962505 2.251018 -1.556991
Zn 2.281257 0.704330 2.285957
O 2.281257 0.704330 0.034167
Zn 0.962505 2.251018 5.046085
O 0.962505 2.251018 2.794295
Zn 2.281257 0.704330 6.637243
O 2.281257 0.704330 4.385453
Zn 0.962505 2.251018 9.397371
O 0.962505 2.251018 7.145581
Zn 2.281257 0.704330 10.988529
O 2.281257 0.704330 8.736739
Zn -1.826327 5.206366 -2.927521
O -1.826327 5.206366 -5.179311
Zn -0.507575 3.659678 -1.336363
O -0.507575 3.659678 -3.588153
Zn -1.826327 5.206366 1.423765
O -1.826327 5.206366 -0.828025
Zn -0.507575 3.659678 3.014923
O -0.507575 3.659678 0.763133
Zn -1.826327 5.206366 5.775051
O -1.826327 5.206366 3.523261
Zn -0.507575 3.659678 7.366209
O -0.507575 3.659678 5.114419
Zn -4.615159 8.161714 -6.549841
O -4.615159 8.161714 -8.801631
Zn -3.296407 6.615026 -4.958683
O -3.296407 6.615026 -7.210473
Zn -4.615159 8.161714 -2.198555
O -4.615159 8.161714 -4.450345
Zn -3.296407 6.615026 -0.607397
O -3.296407 6.615026 -2.859187
Zn -4.615159 8.161714 2.152731
O -4.615159 8.161714 -0.099059
Zn -3.296407 6.615026 3.743889
O -3.296407 6.615026 1.492099
Zn 3.978802 2.251018 0.694799
O 3.978802 2.251018 -1.556991
Zn 5.297554 0.704330 2.285957
O 5.297554 0.704330 0.034167
Zn 3.978802 2.251018 5.046085
O 3.978802 2.251018 2.794295
Zn 5.297554 0.704330 6.637243
O 5.297554 0.704330 4.385453
Zn 3.978802 2.251018 9.397371
O 3.978802 2.251018 7.145581
Zn 5.297554 0.704330 10.988529
O 5.297554 0.704330 8.736739
Zn 1.189970 5.206366 -2.927521
O 1.189970 5.206366 -5.179311
Zn 2.508722 3.659678 -1.336363
O 2.508722 3.659678 -3.588153
Zn 1.189970 5.206366 1.423765
O 1.189970 5.206366 -0.828025
Zn 2.508722 3.659678 3.014923
O 2.508722 3.659678 0.763133
Zn 1.189970 5.206366 5.775051
O 1.189970 5.206366 3.523261
Zn 2.508722 3.659678 7.366209
O 2.508722 3.659678 5.114419
Zn -1.598862 8.161714 -6.549841
O -1.598862 8.161714 -8.801631
Zn -0.280110 6.615026 -4.958683
O -0.280110 6.615026 -7.210473
Zn -1.598862 8.161714 -2.198555
O -1.598862 8.161714 -4.450345
Zn -0.280110 6.615026 -0.607397
O -0.280110 6.615026 -2.859187
Zn -1.598862 8.161714 2.152731
O -1.598862 8.161714 -0.099059
Zn -0.280110 6.615026 3.743889
O -0.280110 6.615026 1.492099
