108
A
Zn -1.813311 2.272430 1.626254
O -1.813311 2.272430 -0.820145
Zn -0.731876 0.653365 2.486353
O -0.731876 0.653365 0.039954
Zn -1.813311 2.272430 6.156622
O -1.813311 2.272430 3.710223
Zn -0.731876 0.653365 7.016721
O -0.731876 0.653365 4.570322
Zn -1.813311 2.272430 10.686990
O -1.813311 2.272430 8.240591
Zn -0.731876 0.653365 11.547089
O -0.731876 0.653365 9.100690
Zn -4.358498 5.198225 -1.237906
O -4.358498 5.198225 -3.684305
Zn -3.277063 3.579160 -0.377807
O -3.277063 3.579160 -2.824206
Zn -4.358498 5.198225 3.292462
O -4.358498 5.198225 0.846063
Zn -3.277063 3.579160 4.152561
O -3.277063 3.579160 1.706162
Zn -4.358498 5.198225 7.822830
O -4.358498 5.198225 5.376431
Zn -3.277063 3.579160 8.682929
O -3.277063 3.579160 6.236530
Zn -6.903685 8.124019 -4.102066
O -6.903685 8.124019 -6.548465
Zn -5.822250 6.504955 -3.241967
O -5.822250 6.504955 -5.688366
Zn -6.903685 8.124019 0.428302
O -6.903685 8.124019 -2.018097
Zn -5.822250 6.504955 1.288401
O -5.822250 6.504955 -1.157998
Zn -6.903685 8.124019 4.958670
O -6.903685 8.124019 2.512271
Zn -5.822250 6.504955 5.818769
O -5.822250 6.504955 3.372370
Zn 1.251796 2.272430 1.626254
O 1.251796 2.272430 -0.820145
Zn 2.333231 0.653365 2.486353
O 2.333231 0.653365 0.039954
Zn 1.251796 2.272430 6.156622
O 1.251796 2.272430 3.710223
Zn 2.333231 0.653365 7.016721
O 2.333231 0.653365 4.570322
Zn 1.251796 2.272430 10.686990
O 1.251796 2.272430 8.240591
Zn 2.333231 0.653365 11.547089
O 2.333231 0.653365 9.100690
Zn -1.293391 5.198225 -1.237906
O -1.293391 5.198225 -3.684305
Zn -0.211956 3.579160 -0.377807
O -0.211956 3.579160 -2.824206
Zn -1.293391 5.198225 3.292462
O -1.293391 5.198225 0.846063
Zn -0.211956 3.579160 4.152561
O -0.211956 3.579160 1.706162
Zn -1.293391 5.198225 7.822830
O -1.293391 5.198225 5.376431
Zn -0.211956 3.579160 8.682929
O -0.211956 3.579160 6.236530
Zn -3.838578 8.124019 -4.102066
O -3.838578 8.124019 -6.548465
Zn -2.757143 6.504955 -3.241967
O -2.757143 6.504955 -5.688366
Zn -3.838578 8.124019 0.428302
O -3.838578 8.124019 -2.018097
Zn -2.757143 6.504955 1.288401
O -2.757143 6.504955 -1.157998
Zn -3.838578 8.124019 4.958670
O -3.838578 8.124019 2.512271
Zn -2.757143 6.504955 5.818769
O -2.757143 6.504955 3.372370
Zn 4.316903 2.272430 1.626254
O 4.316903 2.272430 -0.820145
Zn 5.398338 0.653365 2.486353
O 5.398338 0.653365 0.039954
Zn 4.316903 2.272430 6.156622
O 4.316903 2.272430 3.710223
Zn 5.398338 0.653365 7.016721
O 5.398338 0.653365 4.570322
Zn 4.316903 2.272430 10.686990
O 4.316903 2.272430 8.240591
Zn 5.398338 0.653365 11.547089
O 5.398338 0.653365 9.100690
Zn 1.771716 5.198225 -1.237906
O 1.771716 5.198225 -3.684305
Zn 2.853151 3.579160 -0.377807
O 2.853151 3.579160 -2.824206
Zn 1.771716 5.198225 3.292462
O 1.771716 5.198225 0.846063
Zn 2.853151 3.579160 4.152561
O 2.853151 3.579160 1.706162
Zn 1.771716 5.198225 7.822830
O 1.771716 5.198225 5.376431
Zn 2.853151 3.579160 8.682929
O 2.853151 3.579160 6.236530
Zn -0.773471 8.124019 -4.102066
O -0.773471 8.124019 -6.548465
Zn 0.307964 6.504955 -3.241967
O 0.307964 6.504955 -5.688366
Zn -0.773471 8.124019 0.428302
O -0.773471 8.124019 -2.018097
Zn 0.307964 6.504955 1.288401
O 0.307964 6.504955 -1.157998
Zn -0.773471 8.124019 4.958670
O -0.773471 8.124019 2.512271
Zn 0.307964 6.504955 5.818769
O 0.307964 6.504955 3.372370
