108
A
Zn -1.744693 2.278220 1.892607
O -1.744693 2.278220 -0.609280
Zn -0.732815 0.639366 2.535833
O -0.732815 0.639366 0.033946
Zn -1.744693 2.278220 6.472720
O -1.744693 2.278220 3.970833
Zn -0.732815 0.639366 7.115946
O -0.732815 0.639366 4.614059
Zn -1.744693 2.278220 11.052833
O -1.744693 2.278220 8.550946
Zn -0.732815 0.639366 11.696059
O -0.732815 0.639366 9.194172
Zn -4.222201 5.195806 -0.760953
O -4.222201 5.195806 -3.262840
Zn -3.210323 3.556951 -0.117727
O -3.210323 3.556951 -2.619614
Zn -4.222201 5.195806 3.819160
O -4.222201 5.195806 1.317273
Zn -3.210323 3.556951 4.462386
O -3.210323 3.556951 1.960499
Zn -4.222201 5.195806 8.399273
O -4.222201 5.195806 5.897386
Zn -3.210323 3.556951 9.042499
O -3.210323 3.556951 6.540612
Zn -6.699708 8.113391 -3.414513
O -6.699708 8.113391 -5.916400
Zn -5.687831 6.474537 -2.771287
O -5.687831 6.474537 -5.273174
Zn -6.699708 8.113391 1.165600
O -6.699708 8.113391 -1.336287
Zn -5.687831 6.474537 1.808826
O -5.687831 6.474537 -0.693061
Zn -6.699708 8.113391 5.745713
O -6.699708 8.113391 3.243826
Zn -5.687831 6.474537 6.388939
O -5.687831 6.474537 3.887052
Zn 1.333973 2.278220 1.892607
O 1.333973 2.278220 -0.609280
Zn 2.345850 0.639366 2.535833
O 2.345850 0.639366 0.033946
Zn 1.333973 2.278220 6.472720
O 1.333973 2.278220 3.970833
Zn 2.345850 0.639366 7.115946
O 2.345850 0.639366 4.614059
Zn 1.333973 2.278220 11.052833
O 1.333973 2.278220 8.550946
Zn 2.345850 0.639366 11.696059
O 2.345850 0.639366 9.194172
Zn -1.143535 5.195806 -0.760953
O -1.143535 5.195806 -3.262840
Zn -0.131658 3.556951 -0.117727
O -0.131658 3.556951 -2.619614
Zn -1.143535 5.195806 3.819160
O -1.143535 5.195806 1.317273
Zn -0.131658 3.556951 4.462386
O -0.131658 3.556951 1.960499
Zn -1.143535 5.195806 8.399273
O -1.143535 5.195806 5.897386
Zn -0.131658 3.556951 9.042499
O -0.131658 3.556951 6.540612
Zn -3.621043 8.113391 -3.414513
O -3.621043 8.113391 -5.916400
Zn -2.609165 6.474537 -2.771287
O -2.609165 6.474537 -5.273174
Zn -3.621043 8.113391 1.165600
O -3.621043 8.113391 -1.336287
Zn -2.609165 6.474537 1.808826
O -2.609165 6.474537 -0.693061
Zn -3.621043 8.113391 5.745713
O -3.621043 8.113391 3.243826
Zn -2.609165 6.474537 6.388939
O -2.609165 6.474537 3.887052
Zn 4.412638 2.278220 1.892607
O 4.412638 2.278220 -0.609280
Zn 5.424516 0.639366 2.535833
O 5.424516 0.639366 0.033946
Zn 4.412638 2.278220 6.472720
O 4.412638 2.278220 3.970833
Zn 5.424516 0.639366 7.115946
O 5.424516 0.639366 4.614059
Zn 4.412638 2.278220 11.052833
O 4.412638 2.278220 8.550946
Zn 5.424516 0.639366 11.696059
O 5.424516 0.639366 9.194172
Zn 1.935130 5.195806 -0.760953
O 1.935130 5.195806 -3.262840
Zn 2.947008 3.556951 -0.117727
O 2.947008 3.556951 -2.619614
Zn 1.935130 5.195806 3.819160
O 1.935130 5.195806 1.317273
Zn 2.947008 3.556951 4.462386
O 2.947008 3.556951 1.960499
Zn 1.935130 5.195806 8.399273
O 1.935130 5.195806 5.897386
Zn 2.947008 3.556951 9.042499
O 2.947008 3.556951 6.540612
Zn -0.542378 8.113391 -3.414513
O -0.542378 8.113391 -5.916400
Zn 0.469500 6.474537 -2.771287
O 0.469500 6.474537 -5.273174
Zn -0.542378 8.113391 1.165600
O -0.542378 8.113391 -1.336287
Zn 0.469500 6.474537 1.808826
O 0.469500 6.474537 -0.693061
Zn -0.542378 8.113391 5.745713
O -0.542378 8.113391 3.243826
Zn 0.469500 6.474537 6.388939
O 0.469500 6.474537 3.887052
