108
A
Zn -1.881139 2.266571 3.436078
O -1.881139 2.266571 1.044545
Zn -0.731727 0.667433 1.195766
O -0.731727 0.667433 3.284857
Zn -1.881139 2.266571 7.916701
O -1.881139 2.266571 5.525168
Zn -0.731727 0.667433 5.676389
O -0.731727 0.667433 7.765480
Zn -1.881139 2.266571 12.397324
O -1.881139 2.266571 10.005791
Zn -0.731727 0.667433 10.157012
O -0.731727 0.667433 12.246103
Zn -4.494005 5.200575 3.436078
O -4.494005 5.200575 1.044545
Zn -3.344593 3.601437 1.195766
O -3.344593 3.601437 3.284857
Zn -4.494005 5.200575 7.916701
O -4.494005 5.200575 5.525168
Zn -3.344593 3.601437 5.676389
O -3.344593 3.601437 7.765480
Zn -4.494005 5.200575 12.397324
O -4.494005 5.200575 10.005791
Zn -3.344593 3.601437 10.157012
O -3.344593 3.601437 12.246103
Zn -7.106871 8.134579 3.436078
O -7.106871 8.134579 1.044545
Zn -5.957459 6.535441 1.195766
O -5.957459 6.535441 3.284857
Zn -7.106871 8.134579 7.916701
O -7.106871 8.134579 5.525168
Zn -5.957459 6.535441 5.676389
O -5.957459 6.535441 7.765480
Zn -7.106871 8.134579 12.397324
O -7.106871 8.134579 10.005791
Zn -5.957459 6.535441 10.157012
O -5.957459 6.535441 12.246103
Zn 1.170410 2.266571 3.436078
O 1.170410 2.266571 1.044545
Zn 2.319821 0.667433 1.195766
O 2.319821 0.667433 3.284857
Zn 1.170410 2.266571 7.916701
O 1.170410 2.266571 5.525168
Zn 2.319821 0.667433 5.676389
O 2.319821 0.667433 7.765480
Zn 1.170410 2.266571 12.397324
O 1.170410 2.266571 10.005791
Zn 2.319821 0.667433 10.157012
O 2.319821 0.667433 12.246103
Zn -1.442456 5.200575 3.436078
O -1.442456 5.200575 1.044545
Zn -0.293045 3.601437 1.195766
O -0.293045 3.601437 3.284857
Zn -1.442456 5.200575 7.916701
O -1.442456 5.200575 5.525168
Zn -0.293045 3.601437 5.676389
O -0.293045 3.601437 7.765480
Zn -1.442456 5.200575 12.397324
O -1.442456 5.200575 10.005791
Zn -0.293045 3.601437 10.157012
O -0.293045 3.601437 12.246103
Zn -4.055323 8.134579 3.436078
O -4.055323 8.134579 1.044545
Zn -2.905911 6.535441 1.195766
O -2.905911 6.535441 3.284857
Zn -4.055323 8.134579 7.916701
O -4.055323 8.134579 5.525168
Zn -2.905911 6.535441 5.676389
O -2.905911 6.535441 7.765480
Zn -4.055323 8.134579 12.397324
O -4.055323 8.134579 10.005791
Zn -2.905911 6.535441 10.157012
O -2.905911 6.535441 12.246103
Zn 4.221958 2.266571 3.436078
O 4.221958 2.266571 1.044545
Zn 5.371370 0.667433 1.195766
O 5.371370 0.667433 3.284857
Zn 4.221958 2.266571 7.916701
O 4.221958 2.266571 5.525168
Zn 5.371370 0.667433 5.676389
O 5.371370 0.667433 7.765480
Zn 4.221958 2.266571 12.397324
O 4.221958 2.266571 10.005791
Zn 5.371370 0.667433 10.157012
O 5.371370 0.667433 12.246103
Zn 1.609092 5.200575 3.436078
O 1.609092 5.200575 1.044545
Zn 2.758504 3.601437 1.195766
O 2.758504 3.601437 3.284857
Zn 1.609092 5.200575 7.916701
O 1.609092 5.200575 5.525168
Zn 2.758504 3.601437 5.676389
O 2.758504 3.601437 7.765480
Zn 1.609092 5.200575 12.397324
O 1.609092 5.200575 10.005791
Zn 2.758504 3.601437 10.157012
O 2.758504 3.601437 12.246103
Zn -1.003774 8.134579 3.436078
O -1.003774 8.134579 1.044545
Zn 0.145638 6.535441 1.195766
O 0.145638 6.535441 3.284857
Zn -1.003774 8.134579 7.916701
O -1.003774 8.134579 5.525168
Zn 0.145638 6.535441 5.676389
O 0.145638 6.535441 7.765480
Zn -1.003774 8.134579 12.397324
O -1.003774 8.134579 10.005791
Zn 0.145638 6.535441 10.157012
O 0.145638 6.535441 12.246103
