108
A
Zn -0.937721 2.337395 5.041008
O -0.937721 2.337395 1.887713
Zn -0.795316 0.489889 2.902635
O -0.795316 0.489889 -0.250660
Zn -0.937721 2.337395 10.168316
O -0.937721 2.337395 7.015021
Zn -0.795316 0.489889 8.029943
O -0.795316 0.489889 4.876648
Zn -0.937721 2.337395 15.295624
O -0.937721 2.337395 12.142329
Zn -0.795316 0.489889 13.157251
O -0.795316 0.489889 10.003956
Zn -2.670757 5.164679 4.704048
O -2.670757 5.164679 1.550753
Zn -2.528353 3.317173 2.565675
O -2.528353 3.317173 -0.587620
Zn -2.670757 5.164679 9.831356
O -2.670757 5.164679 6.678061
Zn -2.528353 3.317173 7.692983
O -2.528353 3.317173 4.539688
Zn -2.670757 5.164679 14.958664
O -2.670757 5.164679 11.805369
Zn -2.528353 3.317173 12.820291
O -2.528353 3.317173 9.666996
Zn -4.403794 7.991964 4.367088
O -4.403794 7.991964 1.213793
Zn -4.261389 6.144458 2.228715
O -4.261389 6.144458 -0.924580
Zn -4.403794 7.991964 9.494396
O -4.403794 7.991964 6.341101
Zn -4.261389 6.144458 7.356023
O -4.261389 6.144458 4.202728
Zn -4.403794 7.991964 14.621704
O -4.403794 7.991964 11.468409
Zn -4.261389 6.144458 12.483331
O -4.261389 6.144458 9.330036
Zn 2.290086 2.337395 5.041008
O 2.290086 2.337395 1.887713
Zn 2.432491 0.489889 2.902635
O 2.432491 0.489889 -0.250660
Zn 2.290086 2.337395 10.168316
O 2.290086 2.337395 7.015021
Zn 2.432491 0.489889 8.029943
O 2.432491 0.489889 4.876648
Zn 2.290086 2.337395 15.295624
O 2.290086 2.337395 12.142329
Zn 2.432491 0.489889 13.157251
O 2.432491 0.489889 10.003956
Zn 0.557049 5.164679 4.704048
O 0.557049 5.164679 1.550753
Zn 0.699454 3.317173 2.565675
O 0.699454 3.317173 -0.587620
Zn 0.557049 5.164679 9.831356
O 0.557049 5.164679 6.678061
Zn 0.699454 3.317173 7.692983
O 0.699454 3.317173 4.539688
Zn 0.557049 5.164679 14.958664
O 0.557049 5.164679 11.805369
Zn 0.699454 3.317173 12.820291
O 0.699454 3.317173 9.666996
Zn -1.175987 7.991964 4.367088
O -1.175987 7.991964 1.213793
Zn -1.033583 6.144458 2.228715
O -1.033583 6.144458 -0.924580
Zn -1.175987 7.991964 9.494396
O -1.175987 7.991964 6.341101
Zn -1.033583 6.144458 7.356023
O -1.033583 6.144458 4.202728
Zn -1.175987 7.991964 14.621704
O -1.175987 7.991964 11.468409
Zn -1.033583 6.144458 12.483331
O -1.033583 6.144458 9.330036
Zn 5.517893 2.337395 5.041008
O 5.517893 2.337395 1.887713
Zn 5.660297 0.489889 2.902635
O 5.660297 0.489889 -0.250660
Zn 5.517893 2.337395 10.168316
O 5.517893 2.337395 7.015021
Zn 5.660297 0.489889 8.029943
O 5.660297 0.489889 4.876648
Zn 5.517893 2.337395 15.295624
O 5.517893 2.337395 12.142329
Zn 5.660297 0.489889 13.157251
O 5.660297 0.489889 10.003956
Zn 3.784856 5.164679 4.704048
O 3.784856 5.164679 1.550753
Zn 3.927261 3.317173 2.565675
O 3.927261 3.317173 -0.587620
Zn 3.784856 5.164679 9.831356
O 3.784856 5.164679 6.678061
Zn 3.927261 3.317173 7.692983
O 3.927261 3.317173 4.539688
Zn 3.784856 5.164679 14.958664
O 3.784856 5.164679 11.805369
Zn 3.927261 3.317173 12.820291
O 3.927261 3.317173 9.666996
Zn 2.051819 7.991964 4.367088
O 2.051819 7.991964 1.213793
Zn 2.194224 6.144458 2.228715
O 2.194224 6.144458 -0.924580
Zn 2.051819 7.991964 9.494396
O 2.051819 7.991964 6.341101
Zn 2.194224 6.144458 7.356023
O 2.194224 6.144458 4.202728
Zn 2.051819 7.991964 14.621704
O 2.051819 7.991964 11.468409
Zn 2.194224 6.144458 12.483331
O 2.194224 6.144458 9.330036
