108
A
Zn -1.948176 2.260644 1.103482
O -1.948176 2.260644 -1.233807
Zn -0.732369 0.681570 2.379325
O -0.732369 0.681570 0.042036
Zn -1.948176 2.260644 5.534360
O -1.948176 2.260644 3.197071
Zn -0.732369 0.681570 6.810203
O -0.732369 0.681570 4.472914
Zn -1.948176 2.260644 9.965238
O -1.948176 2.260644 7.627949
Zn -0.732369 0.681570 11.241081
O -0.732369 0.681570 8.903792
Zn -4.628722 5.202857 -2.181878
O -4.628722 5.202857 -4.519167
Zn -3.412914 3.623783 -0.906035
O -3.412914 3.623783 -3.243324
Zn -4.628722 5.202857 2.249000
O -4.628722 5.202857 -0.088289
Zn -3.412914 3.623783 3.524843
O -3.412914 3.623783 1.187554
Zn -4.628722 5.202857 6.679878
O -4.628722 5.202857 4.342589
Zn -3.412914 3.623783 7.955721
O -3.412914 3.623783 5.618432
Zn -7.309267 8.145070 -5.467238
O -7.309267 8.145070 -7.804527
Zn -6.093460 6.565996 -4.191395
O -6.093460 6.565996 -6.528684
Zn -7.309267 8.145070 -1.036360
O -7.309267 8.145070 -3.373649
Zn -6.093460 6.565996 0.239483
O -6.093460 6.565996 -2.097806
Zn -7.309267 8.145070 3.394518
O -7.309267 8.145070 1.057229
Zn -6.093460 6.565996 4.670361
O -6.093460 6.565996 2.333072
Zn 1.089814 2.260644 1.103482
O 1.089814 2.260644 -1.233807
Zn 2.305621 0.681570 2.379325
O 2.305621 0.681570 0.042036
Zn 1.089814 2.260644 5.534360
O 1.089814 2.260644 3.197071
Zn 2.305621 0.681570 6.810203
O 2.305621 0.681570 4.472914
Zn 1.089814 2.260644 9.965238
O 1.089814 2.260644 7.627949
Zn 2.305621 0.681570 11.241081
O 2.305621 0.681570 8.903792
Zn -1.590731 5.202857 -2.181878
O -1.590731 5.202857 -4.519167
Zn -0.374924 3.623783 -0.906035
O -0.374924 3.623783 -3.243324
Zn -1.590731 5.202857 2.249000
O -1.590731 5.202857 -0.088289
Zn -0.374924 3.623783 3.524843
O -0.374924 3.623783 1.187554
Zn -1.590731 5.202857 6.679878
O -1.590731 5.202857 4.342589
Zn -0.374924 3.623783 7.955721
O -0.374924 3.623783 5.618432
Zn -4.271277 8.145070 -5.467238
O -4.271277 8.145070 -7.804527
Zn -3.055469 6.565996 -4.191395
O -3.055469 6.565996 -6.528684
Zn -4.271277 8.145070 -1.036360
O -4.271277 8.145070 -3.373649
Zn -3.055469 6.565996 0.239483
O -3.055469 6.565996 -2.097806
Zn -4.271277 8.145070 3.394518
O -4.271277 8.145070 1.057229
Zn -3.055469 6.565996 4.670361
O -3.055469 6.565996 2.333072
Zn 4.127804 2.260644 1.103482
O 4.127804 2.260644 -1.233807
Zn 5.343612 0.681570 2.379325
O 5.343612 0.681570 0.042036
Zn 4.127804 2.260644 5.534360
O 4.127804 2.260644 3.197071
Zn 5.343612 0.681570 6.810203
O 5.343612 0.681570 4.472914
Zn 4.127804 2.260644 9.965238
O 4.127804 2.260644 7.627949
Zn 5.343612 0.681570 11.241081
O 5.343612 0.681570 8.903792
Zn 1.447259 5.202857 -2.181878
O 1.447259 5.202857 -4.519167
Zn 2.663066 3.623783 -0.906035
O 2.663066 3.623783 -3.243324
Zn 1.447259 5.202857 2.249000
O 1.447259 5.202857 -0.088289
Zn 2.663066 3.623783 3.524843
O 2.663066 3.623783 1.187554
Zn 1.447259 5.202857 6.679878
O 1.447259 5.202857 4.342589
Zn 2.663066 3.623783 7.955721
O 2.663066 3.623783 5.618432
Zn -1.233286 8.145070 -5.467238
O -1.233286 8.145070 -7.804527
Zn -0.017479 6.565996 -4.191395
O -0.017479 6.565996 -6.528684
Zn -1.233286 8.145070 -1.036360
O -1.233286 8.145070 -3.373649
Zn -0.017479 6.565996 0.239483
O -0.017479 6.565996 -2.097806
Zn -1.233286 8.145070 3.394518
O -1.233286 8.145070 1.057229
Zn -0.017479 6.565996 4.670361
O -0.017479 6.565996 2.333072
