108
A
Zn -1.730874 2.279370 3.551560
O -1.730874 2.279370 1.038502
Zn -0.733098 0.636574 1.256529
O -0.733098 0.636574 3.333533
Zn -1.730874 2.279370 8.141622
O -1.730874 2.279370 5.628564
Zn -0.733098 0.636574 5.846591
O -0.733098 0.636574 7.923595
Zn -1.730874 2.279370 12.731684
O -1.730874 2.279370 10.218626
Zn -0.733098 0.636574 10.436653
O -0.733098 0.636574 12.513657
Zn -4.194846 5.195314 3.551560
O -4.194846 5.195314 1.038502
Zn -3.197070 3.552518 1.256529
O -3.197070 3.552518 3.333533
Zn -4.194846 5.195314 8.141622
O -4.194846 5.195314 5.628564
Zn -3.197070 3.552518 5.846591
O -3.197070 3.552518 7.923595
Zn -4.194846 5.195314 12.731684
O -4.194846 5.195314 10.218626
Zn -3.197070 3.552518 10.436653
O -3.197070 3.552518 12.513657
Zn -6.658818 8.111257 3.551560
O -6.658818 8.111257 1.038502
Zn -5.661042 6.468461 1.256529
O -5.661042 6.468461 3.333533
Zn -6.658818 8.111257 8.141622
O -6.658818 8.111257 5.628564
Zn -5.661042 6.468461 5.846591
O -5.661042 6.468461 7.923595
Zn -6.658818 8.111257 12.731684
O -6.658818 8.111257 10.218626
Zn -5.661042 6.468461 10.436653
O -5.661042 6.468461 12.513657
Zn 1.350503 2.279370 3.551560
O 1.350503 2.279370 1.038502
Zn 2.348279 0.636574 1.256529
O 2.348279 0.636574 3.333533
Zn 1.350503 2.279370 8.141622
O 1.350503 2.279370 5.628564
Zn 2.348279 0.636574 5.846591
O 2.348279 0.636574 7.923595
Zn 1.350503 2.279370 12.731684
O 1.350503 2.279370 10.218626
Zn 2.348279 0.636574 10.436653
O 2.348279 0.636574 12.513657
Zn -1.113469 5.195314 3.551560
O -1.113469 5.195314 1.038502
Zn -0.115693 3.552518 1.256529
O -0.115693 3.552518 3.333533
Zn -1.113469 5.195314 8.141622
O -1.113469 5.195314 5.628564
Zn -0.115693 3.552518 5.846591
O -0.115693 3.552518 7.923595
Zn -1.113469 5.195314 12.731684
O -1.113469 5.195314 10.218626
Zn -0.115693 3.552518 10.436653
O -0.115693 3.552518 12.513657
Zn -3.577441 8.111257 3.551560
O -3.577441 8.111257 1.038502
Zn -2.579665 6.468461 1.256529
O -2.579665 6.468461 3.333533
Zn -3.577441 8.111257 8.141622
O -3.577441 8.111257 5.628564
Zn -2.579665 6.468461 5.846591
O -2.579665 6.468461 7.923595
Zn -3.577441 8.111257 12.731684
O -3.577441 8.111257 10.218626
Zn -2.579665 6.468461 10.436653
O -2.579665 6.468461 12.513657
Zn 4.431880 2.279370 3.551560
O 4.431880 2.279370 1.038502
Zn 5.429656 0.636574 1.256529
O 5.429656 0.636574 3.333533
Zn 4.431880 2.279370 8.141622
O 4.431880 2.279370 5.628564
Zn 5.429656 0.636574 5.846591
O 5.429656 0.636574 7.923595
Zn 4.431880 2.279370 12.731684
O 4.431880 2.279370 10.218626
Zn 5.429656 0.636574 10.436653
O 5.429656 0.636574 12.513657
Zn 1.967908 5.195314 3.551560
O 1.967908 5.195314 1.038502
Zn 2.965684 3.552518 1.256529
O 2.965684 3.552518 3.333533
Zn 1.967908 5.195314 8.141622
O 1.967908 5.195314 5.628564
Zn 2.965684 3.552518 5.846591
O 2.965684 3.552518 7.923595
Zn 1.967908 5.195314 12.731684
O 1.967908 5.195314 10.218626
Zn 2.965684 3.552518 10.436653
O 2.965684 3.552518 12.513657
Zn -0.496064 8.111257 3.551560
O -0.496064 8.111257 1.038502
Zn 0.501712 6.468461 1.256529
O 0.501712 6.468461 3.333533
Zn -0.496064 8.111257 8.141622
O -0.496064 8.111257 5.628564
Zn 0.501712 6.468461 5.846591
O 0.501712 6.468461 7.923595
Zn -0.496064 8.111257 12.731684
O -0.496064 8.111257 10.218626
Zn 0.501712 6.468461 10.436653
O 0.501712 6.468461 12.513657
