108
A
Zn -2.157384 2.241216 3.219789
O -2.157384 2.241216 1.051905
Zn -0.739735 0.727266 1.083942
O -0.739735 0.727266 3.187752
Zn -2.157384 2.241216 7.491483
O -2.157384 2.241216 5.323599
Zn -0.739735 0.727266 5.355636
O -0.739735 0.727266 7.459446
Zn -2.157384 2.241216 11.763177
O -2.157384 2.241216 9.595293
Zn -0.739735 0.727266 9.627330
O -0.739735 0.727266 11.731140
Zn -5.054503 5.209699 3.219789
O -5.054503 5.209699 1.051905
Zn -3.636853 3.695749 1.083942
O -3.636853 3.695749 3.187752
Zn -5.054503 5.209699 7.491483
O -5.054503 5.209699 5.323599
Zn -3.636853 3.695749 5.355636
O -3.636853 3.695749 7.459446
Zn -5.054503 5.209699 11.763177
O -5.054503 5.209699 9.595293
Zn -3.636853 3.695749 9.627330
O -3.636853 3.695749 11.731140
Zn -7.951622 8.178182 3.219789
O -7.951622 8.178182 1.051905
Zn -6.533972 6.664232 1.083942
O -6.533972 6.664232 3.187752
Zn -7.951622 8.178182 7.491483
O -7.951622 8.178182 5.323599
Zn -6.533972 6.664232 5.355636
O -6.533972 6.664232 7.459446
Zn -7.951622 8.178182 11.763177
O -7.951622 8.178182 9.595293
Zn -6.533972 6.664232 9.627330
O -6.533972 6.664232 11.731140
Zn 0.837220 2.241216 3.219789
O 0.837220 2.241216 1.051905
Zn 2.254869 0.727266 1.083942
O 2.254869 0.727266 3.187752
Zn 0.837220 2.241216 7.491483
O 0.837220 2.241216 5.323599
Zn 2.254869 0.727266 5.355636
O 2.254869 0.727266 7.459446
Zn 0.837220 2.241216 11.763177
O 0.837220 2.241216 9.595293
Zn 2.254869 0.727266 9.627330
O 2.254869 0.727266 11.731140
Zn -2.059899 5.209699 3.219789
O -2.059899 5.209699 1.051905
Zn -0.642250 3.695749 1.083942
O -0.642250 3.695749 3.187752
Zn -2.059899 5.209699 7.491483
O -2.059899 5.209699 5.323599
Zn -0.642250 3.695749 5.355636
O -0.642250 3.695749 7.459446
Zn -2.059899 5.209699 11.763177
O -2.059899 5.209699 9.595293
Zn -0.642250 3.695749 9.627330
O -0.642250 3.695749 11.731140
Zn -4.957018 8.178182 3.219789
O -4.957018 8.178182 1.051905
Zn -3.539368 6.664232 1.083942
O -3.539368 6.664232 3.187752
Zn -4.957018 8.178182 7.491483
O -4.957018 8.178182 5.323599
Zn -3.539368 6.664232 5.355636
O -3.539368 6.664232 7.459446
Zn -4.957018 8.178182 11.763177
O -4.957018 8.178182 9.595293
Zn -3.539368 6.664232 9.627330
O -3.539368 6.664232 11.731140
Zn 3.831823 2.241216 3.219789
O 3.831823 2.241216 1.051905
Zn 5.249473 0.727266 1.083942
O 5.249473 0.727266 3.187752
Zn 3.831823 2.241216 7.491483
O 3.831823 2.241216 5.323599
Zn 5.249473 0.727266 5.355636
O 5.249473 0.727266 7.459446
Zn 3.831823 2.241216 11.763177
O 3.831823 2.241216 9.595293
Zn 5.249473 0.727266 9.627330
O 5.249473 0.727266 11.731140
Zn 0.934705 5.209699 3.219789
O 0.934705 5.209699 1.051905
Zn 2.352354 3.695749 1.083942
O 2.352354 3.695749 3.187752
Zn 0.934705 5.209699 7.491483
O 0.934705 5.209699 5.323599
Zn 2.352354 3.695749 5.355636
O 2.352354 3.695749 7.459446
Zn 0.934705 5.209699 11.763177
O 0.934705 5.209699 9.595293
Zn 2.352354 3.695749 9.627330
O 2.352354 3.695749 11.731140
Zn -1.962414 8.178182 3.219789
O -1.962414 8.178182 1.051905
Zn -0.544765 6.664232 1.083942
O -0.544765 6.664232 3.187752
Zn -1.962414 8.178182 7.491483
O -1.962414 8.178182 5.323599
Zn -0.544765 6.664232 5.355636
O -0.544765 6.664232 7.459446
Zn -1.962414 8.178182 11.763177
O -1.962414 8.178182 9.595293
Zn -0.544765 6.664232 9.627330
O -0.544765 6.664232 11.731140
