108
A
Zn -2.027578 2.253441 3.322100
O -2.027578 2.253441 1.049084
Zn -0.734182 0.698624 1.136508
O -0.734182 0.698624 3.234676
Zn -2.027578 2.253441 7.693284
O -2.027578 2.253441 5.420268
Zn -0.734182 0.698624 5.507692
O -0.734182 0.698624 7.605860
Zn -2.027578 2.253441 12.064468
O -2.027578 2.253441 9.791452
Zn -0.734182 0.698624 9.878876
O -0.734182 0.698624 11.977044
Zn -4.789338 5.205505 3.322100
O -4.789338 5.205505 1.049084
Zn -3.495943 3.650688 1.136508
O -3.495943 3.650688 3.234676
Zn -4.789338 5.205505 7.693284
O -4.789338 5.205505 5.420268
Zn -3.495943 3.650688 5.507692
O -3.495943 3.650688 7.605860
Zn -4.789338 5.205505 12.064468
O -4.789338 5.205505 9.791452
Zn -3.495943 3.650688 9.878876
O -3.495943 3.650688 11.977044
Zn -7.551099 8.157569 3.322100
O -7.551099 8.157569 1.049084
Zn -6.257703 6.602752 1.136508
O -6.257703 6.602752 3.234676
Zn -7.551099 8.157569 7.693284
O -7.551099 8.157569 5.420268
Zn -6.257703 6.602752 5.507692
O -6.257703 6.602752 7.605860
Zn -7.551099 8.157569 12.064468
O -7.551099 8.157569 9.791452
Zn -6.257703 6.602752 9.878876
O -6.257703 6.602752 11.977044
Zn 0.994142 2.253441 3.322100
O 0.994142 2.253441 1.049084
Zn 2.287538 0.698624 1.136508
O 2.287538 0.698624 3.234676
Zn 0.994142 2.253441 7.693284
O 0.994142 2.253441 5.420268
Zn 2.287538 0.698624 5.507692
O 2.287538 0.698624 7.605860
Zn 0.994142 2.253441 12.064468
O 0.994142 2.253441 9.791452
Zn 2.287538 0.698624 9.878876
O 2.287538 0.698624 11.977044
Zn -1.767618 5.205505 3.322100
O -1.767618 5.205505 1.049084
Zn -0.474222 3.650688 1.136508
O -0.474222 3.650688 3.234676
Zn -1.767618 5.205505 7.693284
O -1.767618 5.205505 5.420268
Zn -0.474222 3.650688 5.507692
O -0.474222 3.650688 7.605860
Zn -1.767618 5.205505 12.064468
O -1.767618 5.205505 9.791452
Zn -0.474222 3.650688 9.878876
O -0.474222 3.650688 11.977044
Zn -4.529378 8.157569 3.322100
O -4.529378 8.157569 1.049084
Zn -3.235983 6.602752 1.136508
O -3.235983 6.602752 3.234676
Zn -4.529378 8.157569 7.693284
O -4.529378 8.157569 5.420268
Zn -3.235983 6.602752 5.507692
O -3.235983 6.602752 7.605860
Zn -4.529378 8.157569 12.064468
O -4.529378 8.157569 9.791452
Zn -3.235983 6.602752 9.878876
O -3.235983 6.602752 11.977044
Zn 4.015863 2.253441 3.322100
O 4.015863 2.253441 1.049084
Zn 5.309258 0.698624 1.136508
O 5.309258 0.698624 3.234676
Zn 4.015863 2.253441 7.693284
O 4.015863 2.253441 5.420268
Zn 5.309258 0.698624 5.507692
O 5.309258 0.698624 7.605860
Zn 4.015863 2.253441 12.064468
O 4.015863 2.253441 9.791452
Zn 5.309258 0.698624 9.878876
O 5.309258 0.698624 11.977044
Zn 1.254102 5.205505 3.322100
O 1.254102 5.205505 1.049084
Zn 2.547498 3.650688 1.136508
O 2.547498 3.650688 3.234676
Zn 1.254102 5.205505 7.693284
O 1.254102 5.205505 5.420268
Zn 2.547498 3.650688 5.507692
O 2.547498 3.650688 7.605860
Zn 1.254102 5.205505 12.064468
O 1.254102 5.205505 9.791452
Zn 2.547498 3.650688 9.878876
O 2.547498 3.650688 11.977044
Zn -1.507658 8.157569 3.322100
O -1.507658 8.157569 1.049084
Zn -0.214262 6.602752 1.136508
O -0.214262 6.602752 3.234676
Zn -1.507658 8.157569 7.693284
O -1.507658 8.157569 5.420268
Zn -0.214262 6.602752 5.507692
O -0.214262 6.602752 7.605860
Zn -1.507658 8.157569 12.064468
O -1.507658 8.157569 9.791452
Zn -0.214262 6.602752 9.878876
O -0.214262 6.602752 11.977044
