108
A
Zn -1.106767 2.326223 4.379278
O -1.106767 2.326223 1.362284
Zn -0.775164 0.519122 2.855305
O -0.775164 0.519122 -0.161689
Zn -1.106767 2.326223 9.397147
O -1.106767 2.326223 6.380153
Zn -0.775164 0.519122 7.873174
O -0.775164 0.519122 4.856180
Zn -1.106767 2.326223 14.415016
O -1.106767 2.326223 11.398022
Zn -0.775164 0.519122 12.891043
O -0.775164 0.519122 9.874049
Zn -2.988698 5.171567 3.578998
O -2.988698 5.171567 0.562004
Zn -2.657095 3.364466 2.055025
O -2.657095 3.364466 -0.961969
Zn -2.988698 5.171567 8.596867
O -2.988698 5.171567 5.579873
Zn -2.657095 3.364466 7.072894
O -2.657095 3.364466 4.055900
Zn -2.988698 5.171567 13.614736
O -2.988698 5.171567 10.597742
Zn -2.657095 3.364466 12.090763
O -2.657095 3.364466 9.073769
Zn -4.870629 8.016912 2.778718
O -4.870629 8.016912 -0.238276
Zn -4.539026 6.209811 1.254745
O -4.539026 6.209811 -1.762249
Zn -4.870629 8.016912 7.796587
O -4.870629 8.016912 4.779593
Zn -4.539026 6.209811 6.272614
O -4.539026 6.209811 3.255620
Zn -4.870629 8.016912 12.814456
O -4.870629 8.016912 9.797462
Zn -4.539026 6.209811 11.290483
O -4.539026 6.209811 8.273489
Zn 2.091212 2.326223 4.379278
O 2.091212 2.326223 1.362284
Zn 2.422814 0.519122 2.855305
O 2.422814 0.519122 -0.161689
Zn 2.091212 2.326223 9.397147
O 2.091212 2.326223 6.380153
Zn 2.422814 0.519122 7.873174
O 2.422814 0.519122 4.856180
Zn 2.091212 2.326223 14.415016
O 2.091212 2.326223 11.398022
Zn 2.422814 0.519122 12.891043
O 2.422814 0.519122 9.874049
Zn 0.209281 5.171567 3.578998
O 0.209281 5.171567 0.562004
Zn 0.540883 3.364466 2.055025
O 0.540883 3.364466 -0.961969
Zn 0.209281 5.171567 8.596867
O 0.209281 5.171567 5.579873
Zn 0.540883 3.364466 7.072894
O 0.540883 3.364466 4.055900
Zn 0.209281 5.171567 13.614736
O 0.209281 5.171567 10.597742
Zn 0.540883 3.364466 12.090763
O 0.540883 3.364466 9.073769
Zn -1.672650 8.016912 2.778718
O -1.672650 8.016912 -0.238276
Zn -1.341048 6.209811 1.254745
O -1.341048 6.209811 -1.762249
Zn -1.672650 8.016912 7.796587
O -1.672650 8.016912 4.779593
Zn -1.341048 6.209811 6.272614
O -1.341048 6.209811 3.255620
Zn -1.672650 8.016912 12.814456
O -1.672650 8.016912 9.797462
Zn -1.341048 6.209811 11.290483
O -1.341048 6.209811 8.273489
Zn 5.289190 2.326223 4.379278
O 5.289190 2.326223 1.362284
Zn 5.620793 0.519122 2.855305
O 5.620793 0.519122 -0.161689
Zn 5.289190 2.326223 9.397147
O 5.289190 2.326223 6.380153
Zn 5.620793 0.519122 7.873174
O 5.620793 0.519122 4.856180
Zn 5.289190 2.326223 14.415016
O 5.289190 2.326223 11.398022
Zn 5.620793 0.519122 12.891043
O 5.620793 0.519122 9.874049
Zn 3.407259 5.171567 3.578998
O 3.407259 5.171567 0.562004
Zn 3.738862 3.364466 2.055025
O 3.738862 3.364466 -0.961969
Zn 3.407259 5.171567 8.596867
O 3.407259 5.171567 5.579873
Zn 3.738862 3.364466 7.072894
O 3.738862 3.364466 4.055900
Zn 3.407259 5.171567 13.614736
O 3.407259 5.171567 10.597742
Zn 3.738862 3.364466 12.090763
O 3.738862 3.364466 9.073769
Zn 1.525328 8.016912 2.778718
O 1.525328 8.016912 -0.238276
Zn 1.856931 6.209811 1.254745
O 1.856931 6.209811 -1.762249
Zn 1.525328 8.016912 7.796587
O 1.525328 8.016912 4.779593
Zn 1.856931 6.209811 6.272614
O 1.856931 6.209811 3.255620
Zn 1.525328 8.016912 12.814456
O 1.525328 8.016912 9.797462
Zn 1.856931 6.209811 11.290483
O 1.856931 6.209811 8.273489
