108
A
Zn -1.758480 2.277067 3.530452
O -1.758480 2.277067 1.039712
Zn -0.732564 0.642160 1.245370
O -0.732564 0.642160 3.324794
Zn -1.758480 2.277067 8.100616
O -1.758480 2.277067 5.609876
Zn -0.732564 0.642160 5.815534
O -0.732564 0.642160 7.894958
Zn -1.758480 2.277067 12.670780
O -1.758480 2.277067 10.180040
Zn -0.732564 0.642160 10.385698
O -0.732564 0.642160 12.465122
Zn -4.249523 5.196295 3.530452
O -4.249523 5.196295 1.039712
Zn -3.223608 3.561387 1.245370
O -3.223608 3.561387 3.324794
Zn -4.249523 5.196295 8.100616
O -4.249523 5.196295 5.609876
Zn -3.223608 3.561387 5.815534
O -3.223608 3.561387 7.894958
Zn -4.249523 5.196295 12.670780
O -4.249523 5.196295 10.180040
Zn -3.223608 3.561387 10.385698
O -3.223608 3.561387 12.465122
Zn -6.740567 8.115522 3.530452
O -6.740567 8.115522 1.039712
Zn -5.714651 6.480615 1.245370
O -5.714651 6.480615 3.324794
Zn -6.740567 8.115522 8.100616
O -6.740567 8.115522 5.609876
Zn -5.714651 6.480615 5.815534
O -5.714651 6.480615 7.894958
Zn -6.740567 8.115522 12.670780
O -6.740567 8.115522 10.180040
Zn -5.714651 6.480615 10.385698
O -5.714651 6.480615 12.465122
Zn 1.317474 2.277067 3.530452
O 1.317474 2.277067 1.039712
Zn 2.343390 0.642160 1.245370
O 2.343390 0.642160 3.324794
Zn 1.317474 2.277067 8.100616
O 1.317474 2.277067 5.609876
Zn 2.343390 0.642160 5.815534
O 2.343390 0.642160 7.894958
Zn 1.317474 2.277067 12.670780
O 1.317474 2.277067 10.180040
Zn 2.343390 0.642160 10.385698
O 2.343390 0.642160 12.465122
Zn -1.173570 5.196295 3.530452
O -1.173570 5.196295 1.039712
Zn -0.147654 3.561387 1.245370
O -0.147654 3.561387 3.324794
Zn -1.173570 5.196295 8.100616
O -1.173570 5.196295 5.609876
Zn -0.147654 3.561387 5.815534
O -0.147654 3.561387 7.894958
Zn -1.173570 5.196295 12.670780
O -1.173570 5.196295 10.180040
Zn -0.147654 3.561387 10.385698
O -0.147654 3.561387 12.465122
Zn -3.664613 8.115522 3.530452
O -3.664613 8.115522 1.039712
Zn -2.638698 6.480615 1.245370
O -2.638698 6.480615 3.324794
Zn -3.664613 8.115522 8.100616
O -3.664613 8.115522 5.609876
Zn -2.638698 6.480615 5.815534
O -2.638698 6.480615 7.894958
Zn -3.664613 8.115522 12.670780
O -3.664613 8.115522 10.180040
Zn -2.638698 6.480615 10.385698
O -2.638698 6.480615 12.465122
Zn 4.393428 2.277067 3.530452
O 4.393428 2.277067 1.039712
Zn 5.419343 0.642160 1.245370
O 5.419343 0.642160 3.324794
Zn 4.393428 2.277067 8.100616
O 4.393428 2.277067 5.609876
Zn 5.419343 0.642160 5.815534
O 5.419343 0.642160 7.894958
Zn 4.393428 2.277067 12.670780
O 4.393428 2.277067 10.180040
Zn 5.419343 0.642160 10.385698
O 5.419343 0.642160 12.465122
Zn 1.902384 5.196295 3.530452
O 1.902384 5.196295 1.039712
Zn 2.928300 3.561387 1.245370
O 2.928300 3.561387 3.324794
Zn 1.902384 5.196295 8.100616
O 1.902384 5.196295 5.609876
Zn 2.928300 3.561387 5.815534
O 2.928300 3.561387 7.894958
Zn 1.902384 5.196295 12.670780
O 1.902384 5.196295 10.180040
Zn 2.928300 3.561387 10.385698
O 2.928300 3.561387 12.465122
Zn -0.588660 8.115522 3.530452
O -0.588660 8.115522 1.039712
Zn 0.437256 6.480615 1.245370
O 0.437256 6.480615 3.324794
Zn -0.588660 8.115522 8.100616
O -0.588660 8.115522 5.609876
Zn 0.437256 6.480615 5.815534
O 0.437256 6.480615 7.894958
Zn -0.588660 8.115522 12.670780
O -0.588660 8.115522 10.180040
Zn 0.437256 6.480615 10.385698
O 0.437256 6.480615 12.465122
