108
A
Zn -1.921456 2.263023 1.206977
O -1.921456 2.263023 -1.151935
Zn -0.732017 0.675907 2.401591
O -0.732017 0.675907 0.042679
Zn -1.921456 2.263023 5.657753
O -1.921456 2.263023 3.298841
Zn -0.732017 0.675907 6.852367
O -0.732017 0.675907 4.493455
Zn -1.921456 2.263023 10.108529
O -1.921456 2.263023 7.749617
Zn -0.732017 0.675907 11.303143
O -0.732017 0.675907 8.944231
Zn -4.574930 5.201952 -1.994143
O -4.574930 5.201952 -4.353055
Zn -3.385491 3.614836 -0.799529
O -3.385491 3.614836 -3.158441
Zn -4.574930 5.201952 2.456633
O -4.574930 5.201952 0.097721
Zn -3.385491 3.614836 3.651247
O -3.385491 3.614836 1.292335
Zn -4.574930 5.201952 6.907409
O -4.574930 5.201952 4.548497
Zn -3.385491 3.614836 8.102023
O -3.385491 3.614836 5.743111
Zn -7.228404 8.140882 -5.195263
O -7.228404 8.140882 -7.554175
Zn -6.038965 6.553766 -4.000649
O -6.038965 6.553766 -6.359561
Zn -7.228404 8.140882 -0.744487
O -7.228404 8.140882 -3.103399
Zn -6.038965 6.553766 0.450127
O -6.038965 6.553766 -1.908785
Zn -7.228404 8.140882 3.706289
O -7.228404 8.140882 1.347377
Zn -6.038965 6.553766 4.900903
O -6.038965 6.553766 2.541991
Zn 1.121957 2.263023 1.206977
O 1.121957 2.263023 -1.151935
Zn 2.311396 0.675907 2.401591
O 2.311396 0.675907 0.042679
Zn 1.121957 2.263023 5.657753
O 1.121957 2.263023 3.298841
Zn 2.311396 0.675907 6.852367
O 2.311396 0.675907 4.493455
Zn 1.121957 2.263023 10.108529
O 1.121957 2.263023 7.749617
Zn 2.311396 0.675907 11.303143
O 2.311396 0.675907 8.944231
Zn -1.531516 5.201952 -1.994143
O -1.531516 5.201952 -4.353055
Zn -0.342077 3.614836 -0.799529
O -0.342077 3.614836 -3.158441
Zn -1.531516 5.201952 2.456633
O -1.531516 5.201952 0.097721
Zn -0.342077 3.614836 3.651247
O -0.342077 3.614836 1.292335
Zn -1.531516 5.201952 6.907409
O -1.531516 5.201952 4.548497
Zn -0.342077 3.614836 8.102023
O -0.342077 3.614836 5.743111
Zn -4.184990 8.140882 -5.195263
O -4.184990 8.140882 -7.554175
Zn -2.995551 6.553766 -4.000649
O -2.995551 6.553766 -6.359561
Zn -4.184990 8.140882 -0.744487
O -4.184990 8.140882 -3.103399
Zn -2.995551 6.553766 0.450127
O -2.995551 6.553766 -1.908785
Zn -4.184990 8.140882 3.706289
O -4.184990 8.140882 1.347377
Zn -2.995551 6.553766 4.900903
O -2.995551 6.553766 2.541991
Zn 4.165371 2.263023 1.206977
O 4.165371 2.263023 -1.151935
Zn 5.354810 0.675907 2.401591
O 5.354810 0.675907 0.042679
Zn 4.165371 2.263023 5.657753
O 4.165371 2.263023 3.298841
Zn 5.354810 0.675907 6.852367
O 5.354810 0.675907 4.493455
Zn 4.165371 2.263023 10.108529
O 4.165371 2.263023 7.749617
Zn 5.354810 0.675907 11.303143
O 5.354810 0.675907 8.944231
Zn 1.511897 5.201952 -1.994143
O 1.511897 5.201952 -4.353055
Zn 2.701336 3.614836 -0.799529
O 2.701336 3.614836 -3.158441
Zn 1.511897 5.201952 2.456633
O 1.511897 5.201952 0.097721
Zn 2.701336 3.614836 3.651247
O 2.701336 3.614836 1.292335
Zn 1.511897 5.201952 6.907409
O 1.511897 5.201952 4.548497
Zn 2.701336 3.614836 8.102023
O 2.701336 3.614836 5.743111
Zn -1.141576 8.140882 -5.195263
O -1.141576 8.140882 -7.554175
Zn 0.047863 6.553766 -4.000649
O 0.047863 6.553766 -6.359561
Zn -1.141576 8.140882 -0.744487
O -1.141576 8.140882 -3.103399
Zn 0.047863 6.553766 0.450127
O 0.047863 6.553766 -1.908785
Zn -1.141576 8.140882 3.706289
O -1.141576 8.140882 1.347377
Zn 0.047863 6.553766 4.900903
O 0.047863 6.553766 2.541991
