108
A
Zn -2.170191 2.239979 0.245163
O -2.170191 2.239979 -1.912346
Zn -0.740464 0.730146 2.172691
O -0.740464 0.730146 0.015182
Zn -2.170191 2.239979 4.506908
O -2.170191 2.239979 2.349399
Zn -0.740464 0.730146 6.434436
O -0.740464 0.730146 4.276927
Zn -2.170191 2.239979 8.768653
O -2.170191 2.239979 6.611144
Zn -0.740464 0.730146 10.696181
O -0.740464 0.730146 8.538672
Zn -5.080846 5.210103 -3.756237
O -5.080846 5.210103 -5.913746
Zn -3.651118 3.700270 -1.828709
O -3.651118 3.700270 -3.986218
Zn -5.080846 5.210103 0.505508
O -5.080846 5.210103 -1.652001
Zn -3.651118 3.700270 2.433036
O -3.651118 3.700270 0.275527
Zn -5.080846 5.210103 4.767253
O -5.080846 5.210103 2.609744
Zn -3.651118 3.700270 6.694781
O -3.651118 3.700270 4.537272
Zn -7.991500 8.180228 -7.757637
O -7.991500 8.180228 -9.915146
Zn -6.561773 6.670395 -5.830109
O -6.561773 6.670395 -7.987618
Zn -7.991500 8.180228 -3.495892
O -7.991500 8.180228 -5.653401
Zn -6.561773 6.670395 -1.568364
O -6.561773 6.670395 -3.725873
Zn -7.991500 8.180228 0.765853
O -7.991500 8.180228 -1.391656
Zn -6.561773 6.670395 2.693381
O -6.561773 6.670395 0.535872
Zn 0.821701 2.239979 0.245163
O 0.821701 2.239979 -1.912346
Zn 2.251428 0.730146 2.172691
O 2.251428 0.730146 0.015182
Zn 0.821701 2.239979 4.506908
O 0.821701 2.239979 2.349399
Zn 2.251428 0.730146 6.434436
O 2.251428 0.730146 4.276927
Zn 0.821701 2.239979 8.768653
O 0.821701 2.239979 6.611144
Zn 2.251428 0.730146 10.696181
O 2.251428 0.730146 8.538672
Zn -2.088953 5.210103 -3.756237
O -2.088953 5.210103 -5.913746
Zn -0.659226 3.700270 -1.828709
O -0.659226 3.700270 -3.986218
Zn -2.088953 5.210103 0.505508
O -2.088953 5.210103 -1.652001
Zn -0.659226 3.700270 2.433036
O -0.659226 3.700270 0.275527
Zn -2.088953 5.210103 4.767253
O -2.088953 5.210103 2.609744
Zn -0.659226 3.700270 6.694781
O -0.659226 3.700270 4.537272
Zn -4.999608 8.180228 -7.757637
O -4.999608 8.180228 -9.915146
Zn -3.569881 6.670395 -5.830109
O -3.569881 6.670395 -7.987618
Zn -4.999608 8.180228 -3.495892
O -4.999608 8.180228 -5.653401
Zn -3.569881 6.670395 -1.568364
O -3.569881 6.670395 -3.725873
Zn -4.999608 8.180228 0.765853
O -4.999608 8.180228 -1.391656
Zn -3.569881 6.670395 2.693381
O -3.569881 6.670395 0.535872
Zn 3.813593 2.239979 0.245163
O 3.813593 2.239979 -1.912346
Zn 5.243321 0.730146 2.172691
O 5.243321 0.730146 0.015182
Zn 3.813593 2.239979 4.506908
O 3.813593 2.239979 2.349399
Zn 5.243321 0.730146 6.434436
O 5.243321 0.730146 4.276927
Zn 3.813593 2.239979 8.768653
O 3.813593 2.239979 6.611144
Zn 5.243321 0.730146 10.696181
O 5.243321 0.730146 8.538672
Zn 0.902939 5.210103 -3.756237
O 0.902939 5.210103 -5.913746
Zn 2.332666 3.700270 -1.828709
O 2.332666 3.700270 -3.986218
Zn 0.902939 5.210103 0.505508
O 0.902939 5.210103 -1.652001
Zn 2.332666 3.700270 2.433036
O 2.332666 3.700270 0.275527
Zn 0.902939 5.210103 4.767253
O 0.902939 5.210103 2.609744
Zn 2.332666 3.700270 6.694781
O 2.332666 3.700270 4.537272
Zn -2.007716 8.180228 -7.757637
O -2.007716 8.180228 -9.915146
Zn -0.577989 6.670395 -5.830109
O -0.577989 6.670395 -7.987618
Zn -2.007716 8.180228 -3.495892
O -2.007716 8.180228 -5.653401
Zn -0.577989 6.670395 -1.568364
O -0.577989 6.670395 -3.725873
Zn -2.007716 8.180228 0.765853
O -2.007716 8.180228 -1.391656
Zn -0.577989 6.670395 2.693381
O -0.577989 6.670395 0.535872
