108
A
Zn -1.675284 2.283942 3.593927
O -1.675284 2.283942 1.035931
Zn -0.734545 0.625434 1.278998
O -0.734545 0.625434 3.350860
Zn -1.675284 2.283942 8.223785
O -1.675284 2.283942 5.665789
Zn -0.734545 0.625434 5.908856
O -0.734545 0.625434 7.980718
Zn -1.675284 2.283942 12.853643
O -1.675284 2.283942 10.295647
Zn -0.734545 0.625434 10.538714
O -0.734545 0.625434 12.610576
Zn -4.085113 5.193318 3.593927
O -4.085113 5.193318 1.035931
Zn -3.144373 3.534811 1.278998
O -3.144373 3.534811 3.350860
Zn -4.085113 5.193318 8.223785
O -4.085113 5.193318 5.665789
Zn -3.144373 3.534811 5.908856
O -3.144373 3.534811 7.980718
Zn -4.085113 5.193318 12.853643
O -4.085113 5.193318 10.295647
Zn -3.144373 3.534811 10.538714
O -3.144373 3.534811 12.610576
Zn -6.494941 8.102695 3.593927
O -6.494941 8.102695 1.035931
Zn -5.554202 6.444187 1.278998
O -5.554202 6.444187 3.350860
Zn -6.494941 8.102695 8.223785
O -6.494941 8.102695 5.665789
Zn -5.554202 6.444187 5.908856
O -5.554202 6.444187 7.980718
Zn -6.494941 8.102695 12.853643
O -6.494941 8.102695 10.295647
Zn -5.554202 6.444187 10.538714
O -5.554202 6.444187 12.610576
Zn 1.416940 2.283942 3.593927
O 1.416940 2.283942 1.035931
Zn 2.357679 0.625434 1.278998
O 2.357679 0.625434 3.350860
Zn 1.416940 2.283942 8.223785
O 1.416940 2.283942 5.665789
Zn 2.357679 0.625434 5.908856
O 2.357679 0.625434 7.980718
Zn 1.416940 2.283942 12.853643
O 1.416940 2.283942 10.295647
Zn 2.357679 0.625434 10.538714
O 2.357679 0.625434 12.610576
Zn -0.992889 5.193318 3.593927
O -0.992889 5.193318 1.035931
Zn -0.052150 3.534811 1.278998
O -0.052150 3.534811 3.350860
Zn -0.992889 5.193318 8.223785
O -0.992889 5.193318 5.665789
Zn -0.052150 3.534811 5.908856
O -0.052150 3.534811 7.980718
Zn -0.992889 5.193318 12.853643
O -0.992889 5.193318 10.295647
Zn -0.052150 3.534811 10.538714
O -0.052150 3.534811 12.610576
Zn -3.402718 8.102695 3.593927
O -3.402718 8.102695 1.035931
Zn -2.461978 6.444187 1.278998
O -2.461978 6.444187 3.350860
Zn -3.402718 8.102695 8.223785
O -3.402718 8.102695 5.665789
Zn -2.461978 6.444187 5.908856
O -2.461978 6.444187 7.980718
Zn -3.402718 8.102695 12.853643
O -3.402718 8.102695 10.295647
Zn -2.461978 6.444187 10.538714
O -2.461978 6.444187 12.610576
Zn 4.509163 2.283942 3.593927
O 4.509163 2.283942 1.035931
Zn 5.449903 0.625434 1.278998
O 5.449903 0.625434 3.350860
Zn 4.509163 2.283942 8.223785
O 4.509163 2.283942 5.665789
Zn 5.449903 0.625434 5.908856
O 5.449903 0.625434 7.980718
Zn 4.509163 2.283942 12.853643
O 4.509163 2.283942 10.295647
Zn 5.449903 0.625434 10.538714
O 5.449903 0.625434 12.610576
Zn 2.099335 5.193318 3.593927
O 2.099335 5.193318 1.035931
Zn 3.040074 3.534811 1.278998
O 3.040074 3.534811 3.350860
Zn 2.099335 5.193318 8.223785
O 2.099335 5.193318 5.665789
Zn 3.040074 3.534811 5.908856
O 3.040074 3.534811 7.980718
Zn 2.099335 5.193318 12.853643
O 2.099335 5.193318 10.295647
Zn 3.040074 3.534811 10.538714
O 3.040074 3.534811 12.610576
Zn -0.310494 8.102695 3.593927
O -0.310494 8.102695 1.035931
Zn 0.630245 6.444187 1.278998
O 0.630245 6.444187 3.350860
Zn -0.310494 8.102695 8.223785
O -0.310494 8.102695 5.665789
Zn 0.630245 6.444187 5.908856
O 0.630245 6.444187 7.980718
Zn -0.310494 8.102695 12.853643
O -0.310494 8.102695 10.295647
Zn 0.630245 6.444187 10.538714
O 0.630245 6.444187 12.610576
