108
A
Zn -1.301616 2.312592 3.617893
O -1.301616 2.312592 0.758102
Zn -0.756281 0.554096 2.782590
O -0.756281 0.554096 -0.077201
Zn -1.301616 2.312592 8.506425
O -1.301616 2.312592 5.646634
Zn -0.756281 0.554096 7.671122
O -0.756281 0.554096 4.811331
Zn -1.301616 2.312592 13.394957
O -1.301616 2.312592 10.535166
Zn -0.756281 0.554096 12.559654
O -0.756281 0.554096 9.699863
Zn -3.359513 5.179281 2.270053
O -3.359513 5.179281 -0.589738
Zn -2.814178 3.420785 1.434750
O -2.814178 3.420785 -1.425041
Zn -3.359513 5.179281 7.158585
O -3.359513 5.179281 4.298794
Zn -2.814178 3.420785 6.323282
O -2.814178 3.420785 3.463491
Zn -3.359513 5.179281 12.047117
O -3.359513 5.179281 9.187326
Zn -2.814178 3.420785 11.211814
O -2.814178 3.420785 8.352023
Zn -5.417410 8.045969 0.922213
O -5.417410 8.045969 -1.937578
Zn -4.872074 6.287473 0.086910
O -4.872074 6.287473 -2.772881
Zn -5.417410 8.045969 5.810745
O -5.417410 8.045969 2.950954
Zn -4.872074 6.287473 4.975442
O -4.872074 6.287473 2.115651
Zn -5.417410 8.045969 10.699277
O -5.417410 8.045969 7.839486
Zn -4.872074 6.287473 9.863974
O -4.872074 6.287473 7.004183
Zn 1.861111 2.312592 3.617893
O 1.861111 2.312592 0.758102
Zn 2.406446 0.554096 2.782590
O 2.406446 0.554096 -0.077201
Zn 1.861111 2.312592 8.506425
O 1.861111 2.312592 5.646634
Zn 2.406446 0.554096 7.671122
O 2.406446 0.554096 4.811331
Zn 1.861111 2.312592 13.394957
O 1.861111 2.312592 10.535166
Zn 2.406446 0.554096 12.559654
O 2.406446 0.554096 9.699863
Zn -0.196786 5.179281 2.270053
O -0.196786 5.179281 -0.589738
Zn 0.348549 3.420785 1.434750
O 0.348549 3.420785 -1.425041
Zn -0.196786 5.179281 7.158585
O -0.196786 5.179281 4.298794
Zn 0.348549 3.420785 6.323282
O 0.348549 3.420785 3.463491
Zn -0.196786 5.179281 12.047117
O -0.196786 5.179281 9.187326
Zn 0.348549 3.420785 11.211814
O 0.348549 3.420785 8.352023
Zn -2.254683 8.045969 0.922213
O -2.254683 8.045969 -1.937578
Zn -1.709348 6.287473 0.086910
O -1.709348 6.287473 -2.772881
Zn -2.254683 8.045969 5.810745
O -2.254683 8.045969 2.950954
Zn -1.709348 6.287473 4.975442
O -1.709348 6.287473 2.115651
Zn -2.254683 8.045969 10.699277
O -2.254683 8.045969 7.839486
Zn -1.709348 6.287473 9.863974
O -1.709348 6.287473 7.004183
Zn 5.023838 2.312592 3.617893
O 5.023838 2.312592 0.758102
Zn 5.569173 0.554096 2.782590
O 5.569173 0.554096 -0.077201
Zn 5.023838 2.312592 8.506425
O 5.023838 2.312592 5.646634
Zn 5.569173 0.554096 7.671122
O 5.569173 0.554096 4.811331
Zn 5.023838 2.312592 13.394957
O 5.023838 2.312592 10.535166
Zn 5.569173 0.554096 12.559654
O 5.569173 0.554096 9.699863
Zn 2.965941 5.179281 2.270053
O 2.965941 5.179281 -0.589738
Zn 3.511276 3.420785 1.434750
O 3.511276 3.420785 -1.425041
Zn 2.965941 5.179281 7.158585
O 2.965941 5.179281 4.298794
Zn 3.511276 3.420785 6.323282
O 3.511276 3.420785 3.463491
Zn 2.965941 5.179281 12.047117
O 2.965941 5.179281 9.187326
Zn 3.511276 3.420785 11.211814
O 3.511276 3.420785 8.352023
Zn 0.908044 8.045969 0.922213
O 0.908044 8.045969 -1.937578
Zn 1.453379 6.287473 0.086910
O 1.453379 6.287473 -2.772881
Zn 0.908044 8.045969 5.810745
O 0.908044 8.045969 2.950954
Zn 1.453379 6.287473 4.975442
O 1.453379 6.287473 2.115651
Zn 0.908044 8.045969 10.699277
O 0.908044 8.045969 7.839486
Zn 1.453379 6.287473 9.863974
O 1.453379 6.287473 7.004183
