108
A
Zn -1.633259 2.287342 3.625833
O -1.633259 2.287342 1.033872
Zn -0.735962 0.617109 1.295980
O -0.735962 0.617109 3.363725
Zn -1.633259 2.287342 8.285538
O -1.633259 2.287342 5.693577
Zn -0.735962 0.617109 5.955685
O -0.735962 0.617109 8.023430
Zn -1.633259 2.287342 12.945243
O -1.633259 2.287342 10.353282
Zn -0.735962 0.617109 10.615390
O -0.735962 0.617109 12.683135
Zn -4.002480 5.191793 3.625833
O -4.002480 5.191793 1.033872
Zn -3.105183 3.521560 1.295980
O -3.105183 3.521560 3.363725
Zn -4.002480 5.191793 8.285538
O -4.002480 5.191793 5.693577
Zn -3.105183 3.521560 5.955685
O -3.105183 3.521560 8.023430
Zn -4.002480 5.191793 12.945243
O -4.002480 5.191793 10.353282
Zn -3.105183 3.521560 10.615390
O -3.105183 3.521560 12.683135
Zn -6.371701 8.096244 3.625833
O -6.371701 8.096244 1.033872
Zn -5.474404 6.426010 1.295980
O -5.474404 6.426010 3.363725
Zn -6.371701 8.096244 8.285538
O -6.371701 8.096244 5.693577
Zn -5.474404 6.426010 5.955685
O -5.474404 6.426010 8.023430
Zn -6.371701 8.096244 12.945243
O -6.371701 8.096244 10.353282
Zn -5.474404 6.426010 10.615390
O -5.474404 6.426010 12.683135
Zn 1.467099 2.287342 3.625833
O 1.467099 2.287342 1.033872
Zn 2.364397 0.617109 1.295980
O 2.364397 0.617109 3.363725
Zn 1.467099 2.287342 8.285538
O 1.467099 2.287342 5.693577
Zn 2.364397 0.617109 5.955685
O 2.364397 0.617109 8.023430
Zn 1.467099 2.287342 12.945243
O 1.467099 2.287342 10.353282
Zn 2.364397 0.617109 10.615390
O 2.364397 0.617109 12.683135
Zn -0.902122 5.191793 3.625833
O -0.902122 5.191793 1.033872
Zn -0.004824 3.521560 1.295980
O -0.004824 3.521560 3.363725
Zn -0.902122 5.191793 8.285538
O -0.902122 5.191793 5.693577
Zn -0.004824 3.521560 5.955685
O -0.004824 3.521560 8.023430
Zn -0.902122 5.191793 12.945243
O -0.902122 5.191793 10.353282
Zn -0.004824 3.521560 10.615390
O -0.004824 3.521560 12.683135
Zn -3.271343 8.096244 3.625833
O -3.271343 8.096244 1.033872
Zn -2.374045 6.426010 1.295980
O -2.374045 6.426010 3.363725
Zn -3.271343 8.096244 8.285538
O -3.271343 8.096244 5.693577
Zn -2.374045 6.426010 5.955685
O -2.374045 6.426010 8.023430
Zn -3.271343 8.096244 12.945243
O -3.271343 8.096244 10.353282
Zn -2.374045 6.426010 10.615390
O -2.374045 6.426010 12.683135
Zn 4.567458 2.287342 3.625833
O 4.567458 2.287342 1.033872
Zn 5.464755 0.617109 1.295980
O 5.464755 0.617109 3.363725
Zn 4.567458 2.287342 8.285538
O 4.567458 2.287342 5.693577
Zn 5.464755 0.617109 5.955685
O 5.464755 0.617109 8.023430
Zn 4.567458 2.287342 12.945243
O 4.567458 2.287342 10.353282
Zn 5.464755 0.617109 10.615390
O 5.464755 0.617109 12.683135
Zn 2.198237 5.191793 3.625833
O 2.198237 5.191793 1.033872
Zn 3.095534 3.521560 1.295980
O 3.095534 3.521560 3.363725
Zn 2.198237 5.191793 8.285538
O 2.198237 5.191793 5.693577
Zn 3.095534 3.521560 5.955685
O 3.095534 3.521560 8.023430
Zn 2.198237 5.191793 12.945243
O 2.198237 5.191793 10.353282
Zn 3.095534 3.521560 10.615390
O 3.095534 3.521560 12.683135
Zn -0.170984 8.096244 3.625833
O -0.170984 8.096244 1.033872
Zn 0.726313 6.426010 1.295980
O 0.726313 6.426010 3.363725
Zn -0.170984 8.096244 8.285538
O -0.170984 8.096244 5.693577
Zn 0.726313 6.426010 5.955685
O 0.726313 6.426010 8.023430
Zn -0.170984 8.096244 12.945243
O -0.170984 8.096244 10.353282
Zn 0.726313 6.426010 10.615390
O 0.726313 6.426010 12.683135
