108
A
Zn -1.404322 2.305061 3.797887
O -1.404322 2.305061 1.021002
Zn -0.748326 0.573121 1.388442
O -0.748326 0.573121 3.430447
Zn -1.404322 2.305061 8.616776
O -1.404322 2.305061 5.839891
Zn -0.748326 0.573121 6.207331
O -0.748326 0.573121 8.249336
Zn -1.404322 2.305061 13.435665
O -1.404322 2.305061 10.658780
Zn -0.748326 0.573121 11.026220
O -0.748326 0.573121 13.068225
Zn -3.556969 5.183242 3.797887
O -3.556969 5.183242 1.021002
Zn -2.900974 3.451302 1.388442
O -2.900974 3.451302 3.430447
Zn -3.556969 5.183242 8.616776
O -3.556969 5.183242 5.839891
Zn -2.900974 3.451302 6.207331
O -2.900974 3.451302 8.249336
Zn -3.556969 5.183242 13.435665
O -3.556969 5.183242 10.658780
Zn -2.900974 3.451302 11.026220
O -2.900974 3.451302 13.068225
Zn -5.709617 8.061423 3.797887
O -5.709617 8.061423 1.021002
Zn -5.053621 6.329484 1.388442
O -5.053621 6.329484 3.430447
Zn -5.709617 8.061423 8.616776
O -5.709617 8.061423 5.839891
Zn -5.053621 6.329484 6.207331
O -5.053621 6.329484 8.249336
Zn -5.709617 8.061423 13.435665
O -5.709617 8.061423 10.658780
Zn -5.053621 6.329484 11.026220
O -5.053621 6.329484 13.068225
Zn 1.739424 2.305061 3.797887
O 1.739424 2.305061 1.021002
Zn 2.395419 0.573121 1.388442
O 2.395419 0.573121 3.430447
Zn 1.739424 2.305061 8.616776
O 1.739424 2.305061 5.839891
Zn 2.395419 0.573121 6.207331
O 2.395419 0.573121 8.249336
Zn 1.739424 2.305061 13.435665
O 1.739424 2.305061 10.658780
Zn 2.395419 0.573121 11.026220
O 2.395419 0.573121 13.068225
Zn -0.413224 5.183242 3.797887
O -0.413224 5.183242 1.021002
Zn 0.242771 3.451302 1.388442
O 0.242771 3.451302 3.430447
Zn -0.413224 5.183242 8.616776
O -0.413224 5.183242 5.839891
Zn 0.242771 3.451302 6.207331
O 0.242771 3.451302 8.249336
Zn -0.413224 5.183242 13.435665
O -0.413224 5.183242 10.658780
Zn 0.242771 3.451302 11.026220
O 0.242771 3.451302 13.068225
Zn -2.565872 8.061423 3.797887
O -2.565872 8.061423 1.021002
Zn -1.909876 6.329484 1.388442
O -1.909876 6.329484 3.430447
Zn -2.565872 8.061423 8.616776
O -2.565872 8.061423 5.839891
Zn -1.909876 6.329484 6.207331
O -1.909876 6.329484 8.249336
Zn -2.565872 8.061423 13.435665
O -2.565872 8.061423 10.658780
Zn -1.909876 6.329484 11.026220
O -1.909876 6.329484 13.068225
Zn 4.883169 2.305061 3.797887
O 4.883169 2.305061 1.021002
Zn 5.539164 0.573121 1.388442
O 5.539164 0.573121 3.430447
Zn 4.883169 2.305061 8.616776
O 4.883169 2.305061 5.839891
Zn 5.539164 0.573121 6.207331
O 5.539164 0.573121 8.249336
Zn 4.883169 2.305061 13.435665
O 4.883169 2.305061 10.658780
Zn 5.539164 0.573121 11.026220
O 5.539164 0.573121 13.068225
Zn 2.730521 5.183242 3.797887
O 2.730521 5.183242 1.021002
Zn 3.386517 3.451302 1.388442
O 3.386517 3.451302 3.430447
Zn 2.730521 5.183242 8.616776
O 2.730521 5.183242 5.839891
Zn 3.386517 3.451302 6.207331
O 3.386517 3.451302 8.249336
Zn 2.730521 5.183242 13.435665
O 2.730521 5.183242 10.658780
Zn 3.386517 3.451302 11.026220
O 3.386517 3.451302 13.068225
Zn 0.577873 8.061423 3.797887
O 0.577873 8.061423 1.021002
Zn 1.233869 6.329484 1.388442
O 1.233869 6.329484 3.430447
Zn 0.577873 8.061423 8.616776
O 0.577873 8.061423 5.839891
Zn 1.233869 6.329484 6.207331
O 1.233869 6.329484 8.249336
Zn 0.577873 8.061423 13.435665
O 0.577873 8.061423 10.658780
Zn 1.233869 6.329484 11.026220
O 1.233869 6.329484 13.068225
