108
A
Zn -2.221102 2.235002 3.169100
O -2.221102 2.235002 1.052849
Zn -0.743696 0.741690 1.058126
O -0.743696 0.741690 3.163823
Zn -2.221102 2.235002 7.391049
O -2.221102 2.235002 5.274798
Zn -0.743696 0.741690 5.280075
O -0.743696 0.741690 7.385772
Zn -2.221102 2.235002 11.612998
O -2.221102 2.235002 9.496747
Zn -0.743696 0.741690 9.502024
O -0.743696 0.741690 11.607721
Zn -5.185900 5.211693 3.169100
O -5.185900 5.211693 1.052849
Zn -3.708494 3.718382 1.058126
O -3.708494 3.718382 3.163823
Zn -5.185900 5.211693 7.391049
O -5.185900 5.211693 5.274798
Zn -3.708494 3.718382 5.280075
O -3.708494 3.718382 7.385772
Zn -5.185900 5.211693 11.612998
O -5.185900 5.211693 9.496747
Zn -3.708494 3.718382 9.502024
O -3.708494 3.718382 11.607721
Zn -8.150698 8.188385 3.169100
O -8.150698 8.188385 1.052849
Zn -6.673292 6.695074 1.058126
O -6.673292 6.695074 3.163823
Zn -8.150698 8.188385 7.391049
O -8.150698 8.188385 5.274798
Zn -6.673292 6.695074 5.280075
O -6.673292 6.695074 7.385772
Zn -8.150698 8.188385 11.612998
O -8.150698 8.188385 9.496747
Zn -6.673292 6.695074 9.502024
O -6.673292 6.695074 11.607721
Zn 0.759944 2.235002 3.169100
O 0.759944 2.235002 1.052849
Zn 2.237349 0.741690 1.058126
O 2.237349 0.741690 3.163823
Zn 0.759944 2.235002 7.391049
O 0.759944 2.235002 5.274798
Zn 2.237349 0.741690 5.280075
O 2.237349 0.741690 7.385772
Zn 0.759944 2.235002 11.612998
O 0.759944 2.235002 9.496747
Zn 2.237349 0.741690 9.502024
O 2.237349 0.741690 11.607721
Zn -2.204854 5.211693 3.169100
O -2.204854 5.211693 1.052849
Zn -0.727449 3.718382 1.058126
O -0.727449 3.718382 3.163823
Zn -2.204854 5.211693 7.391049
O -2.204854 5.211693 5.274798
Zn -0.727449 3.718382 5.280075
O -0.727449 3.718382 7.385772
Zn -2.204854 5.211693 11.612998
O -2.204854 5.211693 9.496747
Zn -0.727449 3.718382 9.502024
O -0.727449 3.718382 11.607721
Zn -5.169652 8.188385 3.169100
O -5.169652 8.188385 1.052849
Zn -3.692247 6.695074 1.058126
O -3.692247 6.695074 3.163823
Zn -5.169652 8.188385 7.391049
O -5.169652 8.188385 5.274798
Zn -3.692247 6.695074 5.280075
O -3.692247 6.695074 7.385772
Zn -5.169652 8.188385 11.612998
O -5.169652 8.188385 9.496747
Zn -3.692247 6.695074 9.502024
O -3.692247 6.695074 11.607721
Zn 3.740989 2.235002 3.169100
O 3.740989 2.235002 1.052849
Zn 5.218395 0.741690 1.058126
O 5.218395 0.741690 3.163823
Zn 3.740989 2.235002 7.391049
O 3.740989 2.235002 5.274798
Zn 5.218395 0.741690 5.280075
O 5.218395 0.741690 7.385772
Zn 3.740989 2.235002 11.612998
O 3.740989 2.235002 9.496747
Zn 5.218395 0.741690 9.502024
O 5.218395 0.741690 11.607721
Zn 0.776191 5.211693 3.169100
O 0.776191 5.211693 1.052849
Zn 2.253597 3.718382 1.058126
O 2.253597 3.718382 3.163823
Zn 0.776191 5.211693 7.391049
O 0.776191 5.211693 5.274798
Zn 2.253597 3.718382 5.280075
O 2.253597 3.718382 7.385772
Zn 0.776191 5.211693 11.612998
O 0.776191 5.211693 9.496747
Zn 2.253597 3.718382 9.502024
O 2.253597 3.718382 11.607721
Zn -2.188607 8.188385 3.169100
O -2.188607 8.188385 1.052849
Zn -0.711201 6.695074 1.058126
O -0.711201 6.695074 3.163823
Zn -2.188607 8.188385 7.391049
O -2.188607 8.188385 5.274798
Zn -0.711201 6.695074 5.280075
O -0.711201 6.695074 7.385772
Zn -2.188607 8.188385 11.612998
O -2.188607 8.188385 9.496747
Zn -0.711201 6.695074 9.502024
O -0.711201 6.695074 11.607721
