108
A
Zn -1.137091 2.324156 4.260685
O -1.137091 2.324156 1.268150
Zn -0.771911 0.524472 2.845301
O -0.771911 0.524472 -0.147234
Zn -1.137091 2.324156 9.258656
O -1.137091 2.324156 6.266121
Zn -0.771911 0.524472 7.843272
O -0.771911 0.524472 4.850737
Zn -1.137091 2.324156 14.256627
O -1.137091 2.324156 11.264092
Zn -0.771911 0.524472 12.841243
O -0.771911 0.524472 9.848708
Zn -3.046094 5.172784 3.376165
O -3.046094 5.172784 0.383630
Zn -2.680914 3.373101 1.960781
O -2.680914 3.373101 -1.031754
Zn -3.046094 5.172784 8.374136
O -3.046094 5.172784 5.381601
Zn -2.680914 3.373101 6.958752
O -2.680914 3.373101 3.966217
Zn -3.046094 5.172784 13.372107
O -3.046094 5.172784 10.379572
Zn -2.680914 3.373101 11.956723
O -2.680914 3.373101 8.964188
Zn -4.955097 8.021412 2.491645
O -4.955097 8.021412 -0.500890
Zn -4.589916 6.221729 1.076261
O -4.589916 6.221729 -1.916274
Zn -4.955097 8.021412 7.489616
O -4.955097 8.021412 4.497081
Zn -4.589916 6.221729 6.074232
O -4.589916 6.221729 3.081697
Zn -4.955097 8.021412 12.487587
O -4.955097 8.021412 9.495052
Zn -4.589916 6.221729 11.072203
O -4.589916 6.221729 8.079668
Zn 2.055464 2.324156 4.260685
O 2.055464 2.324156 1.268150
Zn 2.420644 0.524472 2.845301
O 2.420644 0.524472 -0.147234
Zn 2.055464 2.324156 9.258656
O 2.055464 2.324156 6.266121
Zn 2.420644 0.524472 7.843272
O 2.420644 0.524472 4.850737
Zn 2.055464 2.324156 14.256627
O 2.055464 2.324156 11.264092
Zn 2.420644 0.524472 12.841243
O 2.420644 0.524472 9.848708
Zn 0.146461 5.172784 3.376165
O 0.146461 5.172784 0.383630
Zn 0.511641 3.373101 1.960781
O 0.511641 3.373101 -1.031754
Zn 0.146461 5.172784 8.374136
O 0.146461 5.172784 5.381601
Zn 0.511641 3.373101 6.958752
O 0.511641 3.373101 3.966217
Zn 0.146461 5.172784 13.372107
O 0.146461 5.172784 10.379572
Zn 0.511641 3.373101 11.956723
O 0.511641 3.373101 8.964188
Zn -1.762541 8.021412 2.491645
O -1.762541 8.021412 -0.500890
Zn -1.397361 6.221729 1.076261
O -1.397361 6.221729 -1.916274
Zn -1.762541 8.021412 7.489616
O -1.762541 8.021412 4.497081
Zn -1.397361 6.221729 6.074232
O -1.397361 6.221729 3.081697
Zn -1.762541 8.021412 12.487587
O -1.762541 8.021412 9.495052
Zn -1.397361 6.221729 11.072203
O -1.397361 6.221729 8.079668
Zn 5.248019 2.324156 4.260685
O 5.248019 2.324156 1.268150
Zn 5.613199 0.524472 2.845301
O 5.613199 0.524472 -0.147234
Zn 5.248019 2.324156 9.258656
O 5.248019 2.324156 6.266121
Zn 5.613199 0.524472 7.843272
O 5.613199 0.524472 4.850737
Zn 5.248019 2.324156 14.256627
O 5.248019 2.324156 11.264092
Zn 5.613199 0.524472 12.841243
O 5.613199 0.524472 9.848708
Zn 3.339016 5.172784 3.376165
O 3.339016 5.172784 0.383630
Zn 3.704196 3.373101 1.960781
O 3.704196 3.373101 -1.031754
Zn 3.339016 5.172784 8.374136
O 3.339016 5.172784 5.381601
Zn 3.704196 3.373101 6.958752
O 3.704196 3.373101 3.966217
Zn 3.339016 5.172784 13.372107
O 3.339016 5.172784 10.379572
Zn 3.704196 3.373101 11.956723
O 3.704196 3.373101 8.964188
Zn 1.430014 8.021412 2.491645
O 1.430014 8.021412 -0.500890
Zn 1.795194 6.221729 1.076261
O 1.795194 6.221729 -1.916274
Zn 1.430014 8.021412 7.489616
O 1.430014 8.021412 4.497081
Zn 1.795194 6.221729 6.074232
O 1.795194 6.221729 3.081697
Zn 1.430014 8.021412 12.487587
O 1.430014 8.021412 9.495052
Zn 1.795194 6.221729 11.072203
O 1.795194 6.221729 8.079668
