108
A
Zn -1.908049 2.264208 3.415243
O -1.908049 2.264208 1.045482
Zn -0.731889 0.673079 1.184880
O -0.731889 0.673079 3.275845
Zn -1.908049 2.264208 7.875968
O -1.908049 2.264208 5.506207
Zn -0.731889 0.673079 5.645605
O -0.731889 0.673079 7.736570
Zn -1.908049 2.264208 12.336693
O -1.908049 2.264208 9.966932
Zn -0.731889 0.673079 10.106330
O -0.731889 0.673079 12.197295
Zn -4.547987 5.201496 3.415243
O -4.547987 5.201496 1.045482
Zn -3.371827 3.610367 1.184880
O -3.371827 3.610367 3.275845
Zn -4.547987 5.201496 7.875968
O -4.547987 5.201496 5.506207
Zn -3.371827 3.610367 5.645605
O -3.371827 3.610367 7.736570
Zn -4.547987 5.201496 12.336693
O -4.547987 5.201496 9.966932
Zn -3.371827 3.610367 10.106330
O -3.371827 3.610367 12.197295
Zn -7.187924 8.138784 3.415243
O -7.187924 8.138784 1.045482
Zn -6.011765 6.547655 1.184880
O -6.011765 6.547655 3.275845
Zn -7.187924 8.138784 7.875968
O -7.187924 8.138784 5.506207
Zn -6.011765 6.547655 5.645605
O -6.011765 6.547655 7.736570
Zn -7.187924 8.138784 12.336693
O -7.187924 8.138784 9.966932
Zn -6.011765 6.547655 10.106330
O -6.011765 6.547655 12.197295
Zn 1.138077 2.264208 3.415243
O 1.138077 2.264208 1.045482
Zn 2.314236 0.673079 1.184880
O 2.314236 0.673079 3.275845
Zn 1.138077 2.264208 7.875968
O 1.138077 2.264208 5.506207
Zn 2.314236 0.673079 5.645605
O 2.314236 0.673079 7.736570
Zn 1.138077 2.264208 12.336693
O 1.138077 2.264208 9.966932
Zn 2.314236 0.673079 10.106330
O 2.314236 0.673079 12.197295
Zn -1.501861 5.201496 3.415243
O -1.501861 5.201496 1.045482
Zn -0.325702 3.610367 1.184880
O -0.325702 3.610367 3.275845
Zn -1.501861 5.201496 7.875968
O -1.501861 5.201496 5.506207
Zn -0.325702 3.610367 5.645605
O -0.325702 3.610367 7.736570
Zn -1.501861 5.201496 12.336693
O -1.501861 5.201496 9.966932
Zn -0.325702 3.610367 10.106330
O -0.325702 3.610367 12.197295
Zn -4.141799 8.138784 3.415243
O -4.141799 8.138784 1.045482
Zn -2.965639 6.547655 1.184880
O -2.965639 6.547655 3.275845
Zn -4.141799 8.138784 7.875968
O -4.141799 8.138784 5.506207
Zn -2.965639 6.547655 5.645605
O -2.965639 6.547655 7.736570
Zn -4.141799 8.138784 12.336693
O -4.141799 8.138784 9.966932
Zn -2.965639 6.547655 10.106330
O -2.965639 6.547655 12.197295
Zn 4.184202 2.264208 3.415243
O 4.184202 2.264208 1.045482
Zn 5.360362 0.673079 1.184880
O 5.360362 0.673079 3.275845
Zn 4.184202 2.264208 7.875968
O 4.184202 2.264208 5.506207
Zn 5.360362 0.673079 5.645605
O 5.360362 0.673079 7.736570
Zn 4.184202 2.264208 12.336693
O 4.184202 2.264208 9.966932
Zn 5.360362 0.673079 10.106330
O 5.360362 0.673079 12.197295
Zn 1.544264 5.201496 3.415243
O 1.544264 5.201496 1.045482
Zn 2.720424 3.610367 1.184880
O 2.720424 3.610367 3.275845
Zn 1.544264 5.201496 7.875968
O 1.544264 5.201496 5.506207
Zn 2.720424 3.610367 5.645605
O 2.720424 3.610367 7.736570
Zn 1.544264 5.201496 12.336693
O 1.544264 5.201496 9.966932
Zn 2.720424 3.610367 10.106330
O 2.720424 3.610367 12.197295
Zn -1.095674 8.138784 3.415243
O -1.095674 8.138784 1.045482
Zn 0.080486 6.547655 1.184880
O 0.080486 6.547655 3.275845
Zn -1.095674 8.138784 7.875968
O -1.095674 8.138784 5.506207
Zn 0.080486 6.547655 5.645605
O 0.080486 6.547655 7.736570
Zn -1.095674 8.138784 12.336693
O -1.095674 8.138784 9.966932
Zn 0.080486 6.547655 10.106330
O 0.080486 6.547655 12.197295
