108
A
Zn -0.968741 2.335388 4.919501
O -0.968741 2.335388 1.791213
Zn -0.791368 0.495180 2.894997
O -0.791368 0.495180 -0.233291
Zn -0.968741 2.335388 10.026911
O -0.968741 2.335388 6.898623
Zn -0.791368 0.495180 8.002407
O -0.791368 0.495180 4.874119
Zn -0.968741 2.335388 15.134321
O -0.968741 2.335388 12.006033
Zn -0.791368 0.495180 13.109817
O -0.791368 0.495180 9.981529
Zn -2.728849 5.165956 4.498301
O -2.728849 5.165956 1.370013
Zn -2.551476 3.325748 2.473797
O -2.551476 3.325748 -0.654491
Zn -2.728849 5.165956 9.605711
O -2.728849 5.165956 6.477423
Zn -2.551476 3.325748 7.581207
O -2.551476 3.325748 4.452919
Zn -2.728849 5.165956 14.713121
O -2.728849 5.165956 11.584833
Zn -2.551476 3.325748 12.688617
O -2.551476 3.325748 9.560329
Zn -4.488958 7.996524 4.077101
O -4.488958 7.996524 0.948813
Zn -4.311584 6.156316 2.052597
O -4.311584 6.156316 -1.075691
Zn -4.488958 7.996524 9.184511
O -4.488958 7.996524 6.056223
Zn -4.311584 6.156316 7.160007
O -4.311584 6.156316 4.031719
Zn -4.488958 7.996524 14.291921
O -4.488958 7.996524 11.163633
Zn -4.311584 6.156316 12.267417
O -4.311584 6.156316 9.139129
Zn 2.253643 2.335388 4.919501
O 2.253643 2.335388 1.791213
Zn 2.431016 0.495180 2.894997
O 2.431016 0.495180 -0.233291
Zn 2.253643 2.335388 10.026911
O 2.253643 2.335388 6.898623
Zn 2.431016 0.495180 8.002407
O 2.431016 0.495180 4.874119
Zn 2.253643 2.335388 15.134321
O 2.253643 2.335388 12.006033
Zn 2.431016 0.495180 13.109817
O 2.431016 0.495180 9.981529
Zn 0.493534 5.165956 4.498301
O 0.493534 5.165956 1.370013
Zn 0.670907 3.325748 2.473797
O 0.670907 3.325748 -0.654491
Zn 0.493534 5.165956 9.605711
O 0.493534 5.165956 6.477423
Zn 0.670907 3.325748 7.581207
O 0.670907 3.325748 4.452919
Zn 0.493534 5.165956 14.713121
O 0.493534 5.165956 11.584833
Zn 0.670907 3.325748 12.688617
O 0.670907 3.325748 9.560329
Zn -1.266574 7.996524 4.077101
O -1.266574 7.996524 0.948813
Zn -1.089201 6.156316 2.052597
O -1.089201 6.156316 -1.075691
Zn -1.266574 7.996524 9.184511
O -1.266574 7.996524 6.056223
Zn -1.089201 6.156316 7.160007
O -1.089201 6.156316 4.031719
Zn -1.266574 7.996524 14.291921
O -1.266574 7.996524 11.163633
Zn -1.089201 6.156316 12.267417
O -1.089201 6.156316 9.139129
Zn 5.476026 2.335388 4.919501
O 5.476026 2.335388 1.791213
Zn 5.653399 0.495180 2.894997
O 5.653399 0.495180 -0.233291
Zn 5.476026 2.335388 10.026911
O 5.476026 2.335388 6.898623
Zn 5.653399 0.495180 8.002407
O 5.653399 0.495180 4.874119
Zn 5.476026 2.335388 15.134321
O 5.476026 2.335388 12.006033
Zn 5.653399 0.495180 13.109817
O 5.653399 0.495180 9.981529
Zn 3.715918 5.165956 4.498301
O 3.715918 5.165956 1.370013
Zn 3.893291 3.325748 2.473797
O 3.893291 3.325748 -0.654491
Zn 3.715918 5.165956 9.605711
O 3.715918 5.165956 6.477423
Zn 3.893291 3.325748 7.581207
O 3.893291 3.325748 4.452919
Zn 3.715918 5.165956 14.713121
O 3.715918 5.165956 11.584833
Zn 3.893291 3.325748 12.688617
O 3.893291 3.325748 9.560329
Zn 1.955809 7.996524 4.077101
O 1.955809 7.996524 0.948813
Zn 2.133182 6.156316 2.052597
O 2.133182 6.156316 -1.075691
Zn 1.955809 7.996524 9.184511
O 1.955809 7.996524 6.056223
Zn 2.133182 6.156316 7.160007
O 2.133182 6.156316 4.031719
Zn 1.955809 7.996524 14.291921
O 1.955809 7.996524 11.163633
Zn 2.133182 6.156316 12.267417
O 2.133182 6.156316 9.139129
