108
A
Zn -1.271987 2.314719 3.733573
O -1.271987 2.314719 0.849870
Zn -0.758838 0.548686 2.794960
O -0.758838 0.548686 -0.088743
Zn -1.271987 2.314719 8.642003
O -1.271987 2.314719 5.758300
Zn -0.758838 0.548686 7.703390
O -0.758838 0.548686 4.819687
Zn -1.271987 2.314719 13.550433
O -1.271987 2.314719 10.666730
Zn -0.758838 0.548686 12.611820
O -0.758838 0.548686 9.728117
Zn -3.302812 5.178124 2.469973
O -3.302812 5.178124 -0.413730
Zn -2.789663 3.412090 1.531360
O -2.789663 3.412090 -1.352343
Zn -3.302812 5.178124 7.378403
O -3.302812 5.178124 4.494700
Zn -2.789663 3.412090 6.439790
O -2.789663 3.412090 3.556087
Zn -3.302812 5.178124 12.286833
O -3.302812 5.178124 9.403130
Zn -2.789663 3.412090 11.348220
O -2.789663 3.412090 8.464517
Zn -5.333637 8.041529 1.206373
O -5.333637 8.041529 -1.677330
Zn -4.820488 6.275495 0.267760
O -4.820488 6.275495 -2.615943
Zn -5.333637 8.041529 6.114803
O -5.333637 8.041529 3.231100
Zn -4.820488 6.275495 5.176190
O -4.820488 6.275495 2.292487
Zn -5.333637 8.041529 11.023233
O -5.333637 8.041529 8.139530
Zn -4.820488 6.275495 10.084620
O -4.820488 6.275495 7.200917
Zn 1.896163 2.314719 3.733573
O 1.896163 2.314719 0.849870
Zn 2.409312 0.548686 2.794960
O 2.409312 0.548686 -0.088743
Zn 1.896163 2.314719 8.642003
O 1.896163 2.314719 5.758300
Zn 2.409312 0.548686 7.703390
O 2.409312 0.548686 4.819687
Zn 1.896163 2.314719 13.550433
O 1.896163 2.314719 10.666730
Zn 2.409312 0.548686 12.611820
O 2.409312 0.548686 9.728117
Zn -0.134662 5.178124 2.469973
O -0.134662 5.178124 -0.413730
Zn 0.378487 3.412090 1.531360
O 0.378487 3.412090 -1.352343
Zn -0.134662 5.178124 7.378403
O -0.134662 5.178124 4.494700
Zn 0.378487 3.412090 6.439790
O 0.378487 3.412090 3.556087
Zn -0.134662 5.178124 12.286833
O -0.134662 5.178124 9.403130
Zn 0.378487 3.412090 11.348220
O 0.378487 3.412090 8.464517
Zn -2.165487 8.041529 1.206373
O -2.165487 8.041529 -1.677330
Zn -1.652338 6.275495 0.267760
O -1.652338 6.275495 -2.615943
Zn -2.165487 8.041529 6.114803
O -2.165487 8.041529 3.231100
Zn -1.652338 6.275495 5.176190
O -1.652338 6.275495 2.292487
Zn -2.165487 8.041529 11.023233
O -2.165487 8.041529 8.139530
Zn -1.652338 6.275495 10.084620
O -1.652338 6.275495 7.200917
Zn 5.064313 2.314719 3.733573
O 5.064313 2.314719 0.849870
Zn 5.577462 0.548686 2.794960
O 5.577462 0.548686 -0.088743
Zn 5.064313 2.314719 8.642003
O 5.064313 2.314719 5.758300
Zn 5.577462 0.548686 7.703390
O 5.577462 0.548686 4.819687
Zn 5.064313 2.314719 13.550433
O 5.064313 2.314719 10.666730
Zn 5.577462 0.548686 12.611820
O 5.577462 0.548686 9.728117
Zn 3.033488 5.178124 2.469973
O 3.033488 5.178124 -0.413730
Zn 3.546637 3.412090 1.531360
O 3.546637 3.412090 -1.352343
Zn 3.033488 5.178124 7.378403
O 3.033488 5.178124 4.494700
Zn 3.546637 3.412090 6.439790
O 3.546637 3.412090 3.556087
Zn 3.033488 5.178124 12.286833
O 3.033488 5.178124 9.403130
Zn 3.546637 3.412090 11.348220
O 3.546637 3.412090 8.464517
Zn 1.002663 8.041529 1.206373
O 1.002663 8.041529 -1.677330
Zn 1.515812 6.275495 0.267760
O 1.515812 6.275495 -2.615943
Zn 1.002663 8.041529 6.114803
O 1.002663 8.041529 3.231100
Zn 1.515812 6.275495 5.176190
O 1.515812 6.275495 2.292487
Zn 1.002663 8.041529 11.023233
O 1.002663 8.041529 8.139530
Zn 1.515812 6.275495 10.084620
O 1.515812 6.275495 7.200917
