108
A
Zn -1.826940 2.271263 3.477897
O -1.826940 2.271263 1.042522
Zn -0.731783 0.656173 1.217688
O -0.731783 0.656173 3.302731
Zn -1.826940 2.271263 7.998316
O -1.826940 2.271263 5.562941
Zn -0.731783 0.656173 5.738107
O -0.731783 0.656173 7.823150
Zn -1.826940 2.271263 12.518735
O -1.826940 2.271263 10.083360
Zn -0.731783 0.656173 10.258526
O -0.731783 0.656173 12.343569
Zn -4.385663 5.198700 3.477897
O -4.385663 5.198700 1.042522
Zn -3.290506 3.583610 1.217688
O -3.290506 3.583610 3.302731
Zn -4.385663 5.198700 7.998316
O -4.385663 5.198700 5.562941
Zn -3.290506 3.583610 5.738107
O -3.290506 3.583610 7.823150
Zn -4.385663 5.198700 12.518735
O -4.385663 5.198700 10.083360
Zn -3.290506 3.583610 10.258526
O -3.290506 3.583610 12.343569
Zn -6.944386 8.126137 3.477897
O -6.944386 8.126137 1.042522
Zn -5.849228 6.511047 1.217688
O -5.849228 6.511047 3.302731
Zn -6.944386 8.126137 7.998316
O -6.944386 8.126137 5.562941
Zn -5.849228 6.511047 5.738107
O -5.849228 6.511047 7.823150
Zn -6.944386 8.126137 12.518735
O -6.944386 8.126137 10.083360
Zn -5.849228 6.511047 10.258526
O -5.849228 6.511047 12.343569
Zn 1.235455 2.271263 3.477897
O 1.235455 2.271263 1.042522
Zn 2.330612 0.656173 1.217688
O 2.330612 0.656173 3.302731
Zn 1.235455 2.271263 7.998316
O 1.235455 2.271263 5.562941
Zn 2.330612 0.656173 5.738107
O 2.330612 0.656173 7.823150
Zn 1.235455 2.271263 12.518735
O 1.235455 2.271263 10.083360
Zn 2.330612 0.656173 10.258526
O 2.330612 0.656173 12.343569
Zn -1.323267 5.198700 3.477897
O -1.323267 5.198700 1.042522
Zn -0.228110 3.583610 1.217688
O -0.228110 3.583610 3.302731
Zn -1.323267 5.198700 7.998316
O -1.323267 5.198700 5.562941
Zn -0.228110 3.583610 5.738107
O -0.228110 3.583610 7.823150
Zn -1.323267 5.198700 12.518735
O -1.323267 5.198700 10.083360
Zn -0.228110 3.583610 10.258526
O -0.228110 3.583610 12.343569
Zn -3.881990 8.126137 3.477897
O -3.881990 8.126137 1.042522
Zn -2.786833 6.511047 1.217688
O -2.786833 6.511047 3.302731
Zn -3.881990 8.126137 7.998316
O -3.881990 8.126137 5.562941
Zn -2.786833 6.511047 5.738107
O -2.786833 6.511047 7.823150
Zn -3.881990 8.126137 12.518735
O -3.881990 8.126137 10.083360
Zn -2.786833 6.511047 10.258526
O -2.786833 6.511047 12.343569
Zn 4.297851 2.271263 3.477897
O 4.297851 2.271263 1.042522
Zn 5.393008 0.656173 1.217688
O 5.393008 0.656173 3.302731
Zn 4.297851 2.271263 7.998316
O 4.297851 2.271263 5.562941
Zn 5.393008 0.656173 5.738107
O 5.393008 0.656173 7.823150
Zn 4.297851 2.271263 12.518735
O 4.297851 2.271263 10.083360
Zn 5.393008 0.656173 10.258526
O 5.393008 0.656173 12.343569
Zn 1.739128 5.198700 3.477897
O 1.739128 5.198700 1.042522
Zn 2.834285 3.583610 1.217688
O 2.834285 3.583610 3.302731
Zn 1.739128 5.198700 7.998316
O 1.739128 5.198700 5.562941
Zn 2.834285 3.583610 5.738107
O 2.834285 3.583610 7.823150
Zn 1.739128 5.198700 12.518735
O 1.739128 5.198700 10.083360
Zn 2.834285 3.583610 10.258526
O 2.834285 3.583610 12.343569
Zn -0.819595 8.126137 3.477897
O -0.819595 8.126137 1.042522
Zn 0.275562 6.511047 1.217688
O 0.275562 6.511047 3.302731
Zn -0.819595 8.126137 7.998316
O -0.819595 8.126137 5.562941
Zn 0.275562 6.511047 5.738107
O 0.275562 6.511047 7.823150
Zn -0.819595 8.126137 12.518735
O -0.819595 8.126137 10.083360
Zn 0.275562 6.511047 10.258526
O 0.275562 6.511047 12.343569
