108
A
Zn -1.826940 2.271263 1.573381
O -1.826940 2.271263 -0.861995
Zn -0.731783 0.656173 2.476134
O -0.731783 0.656173 0.040758
Zn -1.826940 2.271263 6.093800
O -1.826940 2.271263 3.658424
Zn -0.731783 0.656173 6.996553
O -0.731783 0.656173 4.561177
Zn -1.826940 2.271263 10.614219
O -1.826940 2.271263 8.178843
Zn -0.731783 0.656173 11.516972
O -0.731783 0.656173 9.081596
Zn -4.385663 5.198700 -1.332899
O -4.385663 5.198700 -3.768275
Zn -3.290506 3.583610 -0.430146
O -3.290506 3.583610 -2.865522
Zn -4.385663 5.198700 3.187520
O -4.385663 5.198700 0.752144
Zn -3.290506 3.583610 4.090273
O -3.290506 3.583610 1.654897
Zn -4.385663 5.198700 7.707939
O -4.385663 5.198700 5.272563
Zn -3.290506 3.583610 8.610692
O -3.290506 3.583610 6.175316
Zn -6.944386 8.126137 -4.239179
O -6.944386 8.126137 -6.674555
Zn -5.849228 6.511047 -3.336426
O -5.849228 6.511047 -5.771802
Zn -6.944386 8.126137 0.281240
O -6.944386 8.126137 -2.154136
Zn -5.849228 6.511047 1.183993
O -5.849228 6.511047 -1.251383
Zn -6.944386 8.126137 4.801659
O -6.944386 8.126137 2.366283
Zn -5.849228 6.511047 5.704412
O -5.849228 6.511047 3.269036
Zn 1.235455 2.271263 1.573381
O 1.235455 2.271263 -0.861995
Zn 2.330612 0.656173 2.476134
O 2.330612 0.656173 0.040758
Zn 1.235455 2.271263 6.093800
O 1.235455 2.271263 3.658424
Zn 2.330612 0.656173 6.996553
O 2.330612 0.656173 4.561177
Zn 1.235455 2.271263 10.614219
O 1.235455 2.271263 8.178843
Zn 2.330612 0.656173 11.516972
O 2.330612 0.656173 9.081596
Zn -1.323267 5.198700 -1.332899
O -1.323267 5.198700 -3.768275
Zn -0.228110 3.583610 -0.430146
O -0.228110 3.583610 -2.865522
Zn -1.323267 5.198700 3.187520
O -1.323267 5.198700 0.752144
Zn -0.228110 3.583610 4.090273
O -0.228110 3.583610 1.654897
Zn -1.323267 5.198700 7.707939
O -1.323267 5.198700 5.272563
Zn -0.228110 3.583610 8.610692
O -0.228110 3.583610 6.175316
Zn -3.881990 8.126137 -4.239179
O -3.881990 8.126137 -6.674555
Zn -2.786833 6.511047 -3.336426
O -2.786833 6.511047 -5.771802
Zn -3.881990 8.126137 0.281240
O -3.881990 8.126137 -2.154136
Zn -2.786833 6.511047 1.183993
O -2.786833 6.511047 -1.251383
Zn -3.881990 8.126137 4.801659
O -3.881990 8.126137 2.366283
Zn -2.786833 6.511047 5.704412
O -2.786833 6.511047 3.269036
Zn 4.297851 2.271263 1.573381
O 4.297851 2.271263 -0.861995
Zn 5.393008 0.656173 2.476134
O 5.393008 0.656173 0.040758
Zn 4.297851 2.271263 6.093800
O 4.297851 2.271263 3.658424
Zn 5.393008 0.656173 6.996553
O 5.393008 0.656173 4.561177
Zn 4.297851 2.271263 10.614219
O 4.297851 2.271263 8.178843
Zn 5.393008 0.656173 11.516972
O 5.393008 0.656173 9.081596
Zn 1.739128 5.198700 -1.332899
O 1.739128 5.198700 -3.768275
Zn 2.834285 3.583610 -0.430146
O 2.834285 3.583610 -2.865522
Zn 1.739128 5.198700 3.187520
O 1.739128 5.198700 0.752144
Zn 2.834285 3.583610 4.090273
O 2.834285 3.583610 1.654897
Zn 1.739128 5.198700 7.707939
O 1.739128 5.198700 5.272563
Zn 2.834285 3.583610 8.610692
O 2.834285 3.583610 6.175316
Zn -0.819595 8.126137 -4.239179
O -0.819595 8.126137 -6.674555
Zn 0.275562 6.511047 -3.336426
O 0.275562 6.511047 -5.771802
Zn -0.819595 8.126137 0.281240
O -0.819595 8.126137 -2.154136
Zn 0.275562 6.511047 1.183993
O 0.275562 6.511047 -1.251383
Zn -0.819595 8.126137 4.801659
O -0.819595 8.126137 2.366283
Zn 0.275562 6.511047 5.704412
O 0.275562 6.511047 3.269036
