108
A
Zn -1.212350 2.318941 3.940025
O -1.212350 2.318941 1.008201
Zn -0.764332 0.537897 1.465912
O -0.764332 0.537897 3.482314
Zn -1.212350 2.318941 8.888251
O -1.212350 2.318941 5.956427
Zn -0.764332 0.537897 6.414138
O -0.764332 0.537897 8.430540
Zn -1.212350 2.318941 13.836477
O -1.212350 2.318941 10.904653
Zn -0.764332 0.537897 11.362364
O -0.764332 0.537897 13.378766
Zn -3.189031 5.175778 3.940025
O -3.189031 5.175778 1.008201
Zn -2.741014 3.394734 1.465912
O -2.741014 3.394734 3.482314
Zn -3.189031 5.175778 8.888251
O -3.189031 5.175778 5.956427
Zn -2.741014 3.394734 6.414138
O -2.741014 3.394734 8.430540
Zn -3.189031 5.175778 13.836477
O -3.189031 5.175778 10.904653
Zn -2.741014 3.394734 11.362364
O -2.741014 3.394734 13.378766
Zn -5.165713 8.032616 3.940025
O -5.165713 8.032616 1.008201
Zn -4.717696 6.251572 1.465912
O -4.717696 6.251572 3.482314
Zn -5.165713 8.032616 8.888251
O -5.165713 8.032616 5.956427
Zn -4.717696 6.251572 6.414138
O -4.717696 6.251572 8.430540
Zn -5.165713 8.032616 13.836477
O -5.165713 8.032616 10.904653
Zn -4.717696 6.251572 11.362364
O -4.717696 6.251572 13.378766
Zn 1.966647 2.318941 3.940025
O 1.966647 2.318941 1.008201
Zn 2.414665 0.537897 1.465912
O 2.414665 0.537897 3.482314
Zn 1.966647 2.318941 8.888251
O 1.966647 2.318941 5.956427
Zn 2.414665 0.537897 6.414138
O 2.414665 0.537897 8.430540
Zn 1.966647 2.318941 13.836477
O 1.966647 2.318941 10.904653
Zn 2.414665 0.537897 11.362364
O 2.414665 0.537897 13.378766
Zn -0.010035 5.175778 3.940025
O -0.010035 5.175778 1.008201
Zn 0.437983 3.394734 1.465912
O 0.437983 3.394734 3.482314
Zn -0.010035 5.175778 8.888251
O -0.010035 5.175778 5.956427
Zn 0.437983 3.394734 6.414138
O 0.437983 3.394734 8.430540
Zn -0.010035 5.175778 13.836477
O -0.010035 5.175778 10.904653
Zn 0.437983 3.394734 11.362364
O 0.437983 3.394734 13.378766
Zn -1.986716 8.032616 3.940025
O -1.986716 8.032616 1.008201
Zn -1.538699 6.251572 1.465912
O -1.538699 6.251572 3.482314
Zn -1.986716 8.032616 8.888251
O -1.986716 8.032616 5.956427
Zn -1.538699 6.251572 6.414138
O -1.538699 6.251572 8.430540
Zn -1.986716 8.032616 13.836477
O -1.986716 8.032616 10.904653
Zn -1.538699 6.251572 11.362364
O -1.538699 6.251572 13.378766
Zn 5.145644 2.318941 3.940025
O 5.145644 2.318941 1.008201
Zn 5.593661 0.537897 1.465912
O 5.593661 0.537897 3.482314
Zn 5.145644 2.318941 8.888251
O 5.145644 2.318941 5.956427
Zn 5.593661 0.537897 6.414138
O 5.593661 0.537897 8.430540
Zn 5.145644 2.318941 13.836477
O 5.145644 2.318941 10.904653
Zn 5.593661 0.537897 11.362364
O 5.593661 0.537897 13.378766
Zn 3.168962 5.175778 3.940025
O 3.168962 5.175778 1.008201
Zn 3.616980 3.394734 1.465912
O 3.616980 3.394734 3.482314
Zn 3.168962 5.175778 8.888251
O 3.168962 5.175778 5.956427
Zn 3.616980 3.394734 6.414138
O 3.616980 3.394734 8.430540
Zn 3.168962 5.175778 13.836477
O 3.168962 5.175778 10.904653
Zn 3.616980 3.394734 11.362364
O 3.616980 3.394734 13.378766
Zn 1.192280 8.032616 3.940025
O 1.192280 8.032616 1.008201
Zn 1.640298 6.251572 1.465912
O 1.640298 6.251572 3.482314
Zn 1.192280 8.032616 8.888251
O 1.192280 8.032616 5.956427
Zn 1.640298 6.251572 6.414138
O 1.640298 6.251572 8.430540
Zn 1.192280 8.032616 13.836477
O 1.192280 8.032616 10.904653
Zn 1.640298 6.251572 11.362364
O 1.640298 6.251572 13.378766
