108
A
Zn -2.131676 2.243683 3.240152
O -2.131676 2.243683 1.051440
Zn -0.738371 0.721516 1.094356
O -0.738371 0.721516 3.197236
Zn -2.131676 2.243683 7.531744
O -2.131676 2.243683 5.343032
Zn -0.738371 0.721516 5.385948
O -0.738371 0.721516 7.488828
Zn -2.131676 2.243683 11.823336
O -2.131676 2.243683 9.634624
Zn -0.738371 0.721516 9.677540
O -0.738371 0.721516 11.780420
Zn -5.001723 5.208882 3.240152
O -5.001723 5.208882 1.051440
Zn -3.608418 3.686715 1.094356
O -3.608418 3.686715 3.197236
Zn -5.001723 5.208882 7.531744
O -5.001723 5.208882 5.343032
Zn -3.608418 3.686715 5.385948
O -3.608418 3.686715 7.488828
Zn -5.001723 5.208882 11.823336
O -5.001723 5.208882 9.634624
Zn -3.608418 3.686715 9.677540
O -3.608418 3.686715 11.780420
Zn -7.871770 8.174081 3.240152
O -7.871770 8.174081 1.051440
Zn -6.478465 6.651914 1.094356
O -6.478465 6.651914 3.197236
Zn -7.871770 8.174081 7.531744
O -7.871770 8.174081 5.343032
Zn -6.478465 6.651914 5.385948
O -6.478465 6.651914 7.488828
Zn -7.871770 8.174081 11.823336
O -7.871770 8.174081 9.634624
Zn -6.478465 6.651914 9.677540
O -6.478465 6.651914 11.780420
Zn 0.868351 2.243683 3.240152
O 0.868351 2.243683 1.051440
Zn 2.261656 0.721516 1.094356
O 2.261656 0.721516 3.197236
Zn 0.868351 2.243683 7.531744
O 0.868351 2.243683 5.343032
Zn 2.261656 0.721516 5.385948
O 2.261656 0.721516 7.488828
Zn 0.868351 2.243683 11.823336
O 0.868351 2.243683 9.634624
Zn 2.261656 0.721516 9.677540
O 2.261656 0.721516 11.780420
Zn -2.001696 5.208882 3.240152
O -2.001696 5.208882 1.051440
Zn -0.608391 3.686715 1.094356
O -0.608391 3.686715 3.197236
Zn -2.001696 5.208882 7.531744
O -2.001696 5.208882 5.343032
Zn -0.608391 3.686715 5.385948
O -0.608391 3.686715 7.488828
Zn -2.001696 5.208882 11.823336
O -2.001696 5.208882 9.634624
Zn -0.608391 3.686715 9.677540
O -0.608391 3.686715 11.780420
Zn -4.871743 8.174081 3.240152
O -4.871743 8.174081 1.051440
Zn -3.478438 6.651914 1.094356
O -3.478438 6.651914 3.197236
Zn -4.871743 8.174081 7.531744
O -4.871743 8.174081 5.343032
Zn -3.478438 6.651914 5.385948
O -3.478438 6.651914 7.488828
Zn -4.871743 8.174081 11.823336
O -4.871743 8.174081 9.634624
Zn -3.478438 6.651914 9.677540
O -3.478438 6.651914 11.780420
Zn 3.868378 2.243683 3.240152
O 3.868378 2.243683 1.051440
Zn 5.261683 0.721516 1.094356
O 5.261683 0.721516 3.197236
Zn 3.868378 2.243683 7.531744
O 3.868378 2.243683 5.343032
Zn 5.261683 0.721516 5.385948
O 5.261683 0.721516 7.488828
Zn 3.868378 2.243683 11.823336
O 3.868378 2.243683 9.634624
Zn 5.261683 0.721516 9.677540
O 5.261683 0.721516 11.780420
Zn 0.998331 5.208882 3.240152
O 0.998331 5.208882 1.051440
Zn 2.391636 3.686715 1.094356
O 2.391636 3.686715 3.197236
Zn 0.998331 5.208882 7.531744
O 0.998331 5.208882 5.343032
Zn 2.391636 3.686715 5.385948
O 2.391636 3.686715 7.488828
Zn 0.998331 5.208882 11.823336
O 0.998331 5.208882 9.634624
Zn 2.391636 3.686715 9.677540
O 2.391636 3.686715 11.780420
Zn -1.871716 8.174081 3.240152
O -1.871716 8.174081 1.051440
Zn -0.478411 6.651914 1.094356
O -0.478411 6.651914 3.197236
Zn -1.871716 8.174081 7.531744
O -1.871716 8.174081 5.343032
Zn -0.478411 6.651914 5.385948
O -0.478411 6.651914 7.488828
Zn -1.871716 8.174081 11.823336
O -1.871716 8.174081 9.634624
Zn -0.478411 6.651914 9.677540
O -0.478411 6.651914 11.780420
