108
A
Zn -1.881139 2.266571 1.363212
O -1.881139 2.266571 -1.028320
Zn -0.731727 0.667433 2.434183
O -0.731727 0.667433 0.042651
Zn -1.881139 2.266571 5.843835
O -1.881139 2.266571 3.452303
Zn -0.731727 0.667433 6.914806
O -0.731727 0.667433 4.523274
Zn -1.881139 2.266571 10.324458
O -1.881139 2.266571 7.932926
Zn -0.731727 0.667433 11.395429
O -0.731727 0.667433 9.003897
Zn -4.494005 5.200575 -1.711548
O -4.494005 5.200575 -4.103080
Zn -3.344593 3.601437 -0.640577
O -3.344593 3.601437 -3.032109
Zn -4.494005 5.200575 2.769075
O -4.494005 5.200575 0.377543
Zn -3.344593 3.601437 3.840046
O -3.344593 3.601437 1.448514
Zn -4.494005 5.200575 7.249698
O -4.494005 5.200575 4.858166
Zn -3.344593 3.601437 8.320669
O -3.344593 3.601437 5.929137
Zn -7.106871 8.134579 -4.786308
O -7.106871 8.134579 -7.177840
Zn -5.957459 6.535441 -3.715337
O -5.957459 6.535441 -6.106869
Zn -7.106871 8.134579 -0.305685
O -7.106871 8.134579 -2.697217
Zn -5.957459 6.535441 0.765286
O -5.957459 6.535441 -1.626246
Zn -7.106871 8.134579 4.174938
O -7.106871 8.134579 1.783406
Zn -5.957459 6.535441 5.245909
O -5.957459 6.535441 2.854377
Zn 1.170410 2.266571 1.363212
O 1.170410 2.266571 -1.028320
Zn 2.319821 0.667433 2.434183
O 2.319821 0.667433 0.042651
Zn 1.170410 2.266571 5.843835
O 1.170410 2.266571 3.452303
Zn 2.319821 0.667433 6.914806
O 2.319821 0.667433 4.523274
Zn 1.170410 2.266571 10.324458
O 1.170410 2.266571 7.932926
Zn 2.319821 0.667433 11.395429
O 2.319821 0.667433 9.003897
Zn -1.442456 5.200575 -1.711548
O -1.442456 5.200575 -4.103080
Zn -0.293045 3.601437 -0.640577
O -0.293045 3.601437 -3.032109
Zn -1.442456 5.200575 2.769075
O -1.442456 5.200575 0.377543
Zn -0.293045 3.601437 3.840046
O -0.293045 3.601437 1.448514
Zn -1.442456 5.200575 7.249698
O -1.442456 5.200575 4.858166
Zn -0.293045 3.601437 8.320669
O -0.293045 3.601437 5.929137
Zn -4.055323 8.134579 -4.786308
O -4.055323 8.134579 -7.177840
Zn -2.905911 6.535441 -3.715337
O -2.905911 6.535441 -6.106869
Zn -4.055323 8.134579 -0.305685
O -4.055323 8.134579 -2.697217
Zn -2.905911 6.535441 0.765286
O -2.905911 6.535441 -1.626246
Zn -4.055323 8.134579 4.174938
O -4.055323 8.134579 1.783406
Zn -2.905911 6.535441 5.245909
O -2.905911 6.535441 2.854377
Zn 4.221958 2.266571 1.363212
O 4.221958 2.266571 -1.028320
Zn 5.371370 0.667433 2.434183
O 5.371370 0.667433 0.042651
Zn 4.221958 2.266571 5.843835
O 4.221958 2.266571 3.452303
Zn 5.371370 0.667433 6.914806
O 5.371370 0.667433 4.523274
Zn 4.221958 2.266571 10.324458
O 4.221958 2.266571 7.932926
Zn 5.371370 0.667433 11.395429
O 5.371370 0.667433 9.003897
Zn 1.609092 5.200575 -1.711548
O 1.609092 5.200575 -4.103080
Zn 2.758504 3.601437 -0.640577
O 2.758504 3.601437 -3.032109
Zn 1.609092 5.200575 2.769075
O 1.609092 5.200575 0.377543
Zn 2.758504 3.601437 3.840046
O 2.758504 3.601437 1.448514
Zn 1.609092 5.200575 7.249698
O 1.609092 5.200575 4.858166
Zn 2.758504 3.601437 8.320669
O 2.758504 3.601437 5.929137
Zn -1.003774 8.134579 -4.786308
O -1.003774 8.134579 -7.177840
Zn 0.145638 6.535441 -3.715337
O 0.145638 6.535441 -6.106869
Zn -1.003774 8.134579 -0.305685
O -1.003774 8.134579 -2.697217
Zn 0.145638 6.535441 0.765286
O 0.145638 6.535441 -1.626246
Zn -1.003774 8.134579 4.174938
O -1.003774 8.134579 1.783406
Zn 0.145638 6.535441 5.245909
O 0.145638 6.535441 2.854377
