108
A
Zn -0.812375 2.345312 5.532331
O -0.812375 2.345312 2.278019
Zn -0.812375 0.468837 2.928881
O -0.812375 0.468837 -0.325431
Zn -0.812375 2.345312 10.739231
O -0.812375 2.345312 7.484919
Zn -0.812375 0.468837 8.135781
O -0.812375 0.468837 4.881469
Zn -0.812375 2.345312 15.946131
O -0.812375 2.345312 12.691819
Zn -0.812375 0.468837 13.342681
O -0.812375 0.468837 10.088369
Zn -2.437125 5.159462 5.532331
O -2.437125 5.159462 2.278019
Zn -2.437125 3.282987 2.928881
O -2.437125 3.282987 -0.325431
Zn -2.437125 5.159462 10.739231
O -2.437125 5.159462 7.484919
Zn -2.437125 3.282987 8.135781
O -2.437125 3.282987 4.881469
Zn -2.437125 5.159462 15.946131
O -2.437125 5.159462 12.691819
Zn -2.437125 3.282987 13.342681
O -2.437125 3.282987 10.088369
Zn -4.061875 7.973611 5.532331
O -4.061875 7.973611 2.278019
Zn -4.061875 6.097136 2.928881
O -4.061875 6.097136 -0.325431
Zn -4.061875 7.973611 10.739231
O -4.061875 7.973611 7.484919
Zn -4.061875 6.097136 8.135781
O -4.061875 6.097136 4.881469
Zn -4.061875 7.973611 15.946131
O -4.061875 7.973611 12.691819
Zn -4.061875 6.097136 13.342681
O -4.061875 6.097136 10.088369
Zn 2.437125 2.345312 5.532331
O 2.437125 2.345312 2.278019
Zn 2.437125 0.468837 2.928881
O 2.437125 0.468837 -0.325431
Zn 2.437125 2.345312 10.739231
O 2.437125 2.345312 7.484919
Zn 2.437125 0.468837 8.135781
O 2.437125 0.468837 4.881469
Zn 2.437125 2.345312 15.946131
O 2.437125 2.345312 12.691819
Zn 2.437125 0.468837 13.342681
O 2.437125 0.468837 10.088369
Zn 0.812375 5.159462 5.532331
O 0.812375 5.159462 2.278019
Zn 0.812375 3.282987 2.928881
O 0.812375 3.282987 -0.325431
Zn 0.812375 5.159462 10.739231
O 0.812375 5.159462 7.484919
Zn 0.812375 3.282987 8.135781
O 0.812375 3.282987 4.881469
Zn 0.812375 5.159462 15.946131
O 0.812375 5.159462 12.691819
Zn 0.812375 3.282987 13.342681
O 0.812375 3.282987 10.088369
Zn -0.812375 7.973611 5.532331
O -0.812375 7.973611 2.278019
Zn -0.812375 6.097136 2.928881
O -0.812375 6.097136 -0.325431
Zn -0.812375 7.973611 10.739231
O -0.812375 7.973611 7.484919
Zn -0.812375 6.097136 8.135781
O -0.812375 6.097136 4.881469
Zn -0.812375 7.973611 15.946131
O -0.812375 7.973611 12.691819
Zn -0.812375 6.097136 13.342681
O -0.812375 6.097136 10.088369
Zn 5.686625 2.345312 5.532331
O 5.686625 2.345312 2.278019
Zn 5.686625 0.468837 2.928881
O 5.686625 0.468837 -0.325431
Zn 5.686625 2.345312 10.739231
O 5.686625 2.345312 7.484919
Zn 5.686625 0.468837 8.135781
O 5.686625 0.468837 4.881469
Zn 5.686625 2.345312 15.946131
O 5.686625 2.345312 12.691819
Zn 5.686625 0.468837 13.342681
O 5.686625 0.468837 10.088369
Zn 4.061875 5.159462 5.532331
O 4.061875 5.159462 2.278019
Zn 4.061875 3.282987 2.928881
O 4.061875 3.282987 -0.325431
Zn 4.061875 5.159462 10.739231
O 4.061875 5.159462 7.484919
Zn 4.061875 3.282987 8.135781
O 4.061875 3.282987 4.881469
Zn 4.061875 5.159462 15.946131
O 4.061875 5.159462 12.691819
Zn 4.061875 3.282987 13.342681
O 4.061875 3.282987 10.088369
Zn 2.437125 7.973611 5.532331
O 2.437125 7.973611 2.278019
Zn 2.437125 6.097136 2.928881
O 2.437125 6.097136 -0.325431
Zn 2.437125 7.973611 10.739231
O 2.437125 7.973611 7.484919
Zn 2.437125 6.097136 8.135781
O 2.437125 6.097136 4.881469
Zn 2.437125 7.973611 15.946131
O 2.437125 7.973611 12.691819
Zn 2.437125 6.097136 13.342681
O 2.437125 6.097136 10.088369
