108
A
Zn -1.717024 2.280517 2.000075
O -1.717024 2.280517 -0.524181
Zn -0.733412 0.633785 2.554872
O -0.733412 0.633785 0.030616
Zn -1.717024 2.280517 6.600086
O -1.717024 2.280517 4.075830
Zn -0.733412 0.633785 7.154883
O -0.733412 0.633785 4.630627
Zn -1.717024 2.280517 11.200097
O -1.717024 2.280517 8.675841
Zn -0.733412 0.633785 11.754894
O -0.733412 0.633785 9.230638
Zn -4.167460 5.194819 -0.569245
O -4.167460 5.194819 -3.093501
Zn -3.183848 3.548087 -0.014448
O -3.183848 3.548087 -2.538704
Zn -4.167460 5.194819 4.030766
O -4.167460 5.194819 1.506510
Zn -3.183848 3.548087 4.585563
O -3.183848 3.548087 2.061307
Zn -4.167460 5.194819 8.630777
O -4.167460 5.194819 6.106521
Zn -3.183848 3.548087 9.185574
O -3.183848 3.548087 6.661318
Zn -6.617896 8.109121 -3.138565
O -6.617896 8.109121 -5.662821
Zn -5.634284 6.462389 -2.583768
O -5.634284 6.462389 -5.108024
Zn -6.617896 8.109121 1.461446
O -6.617896 8.109121 -1.062810
Zn -5.634284 6.462389 2.016243
O -5.634284 6.462389 -0.508013
Zn -6.617896 8.109121 6.061457
O -6.617896 8.109121 3.537201
Zn -5.634284 6.462389 6.616254
O -5.634284 6.462389 4.091998
Zn 1.367064 2.280517 2.000075
O 1.367064 2.280517 -0.524181
Zn 2.350677 0.633785 2.554872
O 2.350677 0.633785 0.030616
Zn 1.367064 2.280517 6.600086
O 1.367064 2.280517 4.075830
Zn 2.350677 0.633785 7.154883
O 2.350677 0.633785 4.630627
Zn 1.367064 2.280517 11.200097
O 1.367064 2.280517 8.675841
Zn 2.350677 0.633785 11.754894
O 2.350677 0.633785 9.230638
Zn -1.083372 5.194819 -0.569245
O -1.083372 5.194819 -3.093501
Zn -0.099759 3.548087 -0.014448
O -0.099759 3.548087 -2.538704
Zn -1.083372 5.194819 4.030766
O -1.083372 5.194819 1.506510
Zn -0.099759 3.548087 4.585563
O -0.099759 3.548087 2.061307
Zn -1.083372 5.194819 8.630777
O -1.083372 5.194819 6.106521
Zn -0.099759 3.548087 9.185574
O -0.099759 3.548087 6.661318
Zn -3.533808 8.109121 -3.138565
O -3.533808 8.109121 -5.662821
Zn -2.550196 6.462389 -2.583768
O -2.550196 6.462389 -5.108024
Zn -3.533808 8.109121 1.461446
O -3.533808 8.109121 -1.062810
Zn -2.550196 6.462389 2.016243
O -2.550196 6.462389 -0.508013
Zn -3.533808 8.109121 6.061457
O -3.533808 8.109121 3.537201
Zn -2.550196 6.462389 6.616254
O -2.550196 6.462389 4.091998
Zn 4.451153 2.280517 2.000075
O 4.451153 2.280517 -0.524181
Zn 5.434765 0.633785 2.554872
O 5.434765 0.633785 0.030616
Zn 4.451153 2.280517 6.600086
O 4.451153 2.280517 4.075830
Zn 5.434765 0.633785 7.154883
O 5.434765 0.633785 4.630627
Zn 4.451153 2.280517 11.200097
O 4.451153 2.280517 8.675841
Zn 5.434765 0.633785 11.754894
O 5.434765 0.633785 9.230638
Zn 2.000717 5.194819 -0.569245
O 2.000717 5.194819 -3.093501
Zn 2.984329 3.548087 -0.014448
O 2.984329 3.548087 -2.538704
Zn 2.000717 5.194819 4.030766
O 2.000717 5.194819 1.506510
Zn 2.984329 3.548087 4.585563
O 2.984329 3.548087 2.061307
Zn 2.000717 5.194819 8.630777
O 2.000717 5.194819 6.106521
Zn 2.984329 3.548087 9.185574
O 2.984329 3.548087 6.661318
Zn -0.449719 8.109121 -3.138565
O -0.449719 8.109121 -5.662821
Zn 0.533893 6.462389 -2.583768
O 0.533893 6.462389 -5.108024
Zn -0.449719 8.109121 1.461446
O -0.449719 8.109121 -1.062810
Zn 0.533893 6.462389 2.016243
O 0.533893 6.462389 -0.508013
Zn -0.449719 8.109121 6.061457
O -0.449719 8.109121 3.537201
Zn 0.533893 6.462389 6.616254
O 0.533893 6.462389 4.091998
