108
A
Zn -1.576784 2.291838 2.545362
O -1.576784 2.291838 -0.092233
Zn -0.738294 0.606046 2.643614
O -0.738294 0.606046 0.006019
Zn -1.576784 2.291838 7.244863
O -1.576784 2.291838 4.607268
Zn -0.738294 0.606046 7.343115
O -0.738294 0.606046 4.705520
Zn -1.576784 2.291838 11.944364
O -1.576784 2.291838 9.306769
Zn -0.738294 0.606046 12.042616
O -0.738294 0.606046 9.405021
Zn -3.891861 5.189721 0.397242
O -3.891861 5.189721 -2.240353
Zn -3.053372 3.503929 0.495494
O -3.053372 3.503929 -2.142101
Zn -3.891861 5.189721 5.096743
O -3.891861 5.189721 2.459148
Zn -3.053372 3.503929 5.194995
O -3.053372 3.503929 2.557400
Zn -3.891861 5.189721 9.796244
O -3.891861 5.189721 7.158649
Zn -3.053372 3.503929 9.894496
O -3.053372 3.503929 7.256901
Zn -6.206939 8.087605 -1.750878
O -6.206939 8.087605 -4.388473
Zn -5.368449 6.401813 -1.652626
O -5.368449 6.401813 -4.290221
Zn -6.206939 8.087605 2.948623
O -6.206939 8.087605 0.311028
Zn -5.368449 6.401813 3.046875
O -5.368449 6.401813 0.409280
Zn -6.206939 8.087605 7.648124
O -6.206939 8.087605 5.010529
Zn -5.368449 6.401813 7.746376
O -5.368449 6.401813 5.108781
Zn 1.534422 2.291838 2.545362
O 1.534422 2.291838 -0.092233
Zn 2.372911 0.606046 2.643614
O 2.372911 0.606046 0.006019
Zn 1.534422 2.291838 7.244863
O 1.534422 2.291838 4.607268
Zn 2.372911 0.606046 7.343115
O 2.372911 0.606046 4.705520
Zn 1.534422 2.291838 11.944364
O 1.534422 2.291838 9.306769
Zn 2.372911 0.606046 12.042616
O 2.372911 0.606046 9.405021
Zn -0.780656 5.189721 0.397242
O -0.780656 5.189721 -2.240353
Zn 0.057833 3.503929 0.495494
O 0.057833 3.503929 -2.142101
Zn -0.780656 5.189721 5.096743
O -0.780656 5.189721 2.459148
Zn 0.057833 3.503929 5.194995
O 0.057833 3.503929 2.557400
Zn -0.780656 5.189721 9.796244
O -0.780656 5.189721 7.158649
Zn 0.057833 3.503929 9.894496
O 0.057833 3.503929 7.256901
Zn -3.095734 8.087605 -1.750878
O -3.095734 8.087605 -4.388473
Zn -2.257244 6.401813 -1.652626
O -2.257244 6.401813 -4.290221
Zn -3.095734 8.087605 2.948623
O -3.095734 8.087605 0.311028
Zn -2.257244 6.401813 3.046875
O -2.257244 6.401813 0.409280
Zn -3.095734 8.087605 7.648124
O -3.095734 8.087605 5.010529
Zn -2.257244 6.401813 7.746376
O -2.257244 6.401813 5.108781
Zn 4.645627 2.291838 2.545362
O 4.645627 2.291838 -0.092233
Zn 5.484116 0.606046 2.643614
O 5.484116 0.606046 0.006019
Zn 4.645627 2.291838 7.244863
O 4.645627 2.291838 4.607268
Zn 5.484116 0.606046 7.343115
O 5.484116 0.606046 4.705520
Zn 4.645627 2.291838 11.944364
O 4.645627 2.291838 9.306769
Zn 5.484116 0.606046 12.042616
O 5.484116 0.606046 9.405021
Zn 2.330549 5.189721 0.397242
O 2.330549 5.189721 -2.240353
Zn 3.169039 3.503929 0.495494
O 3.169039 3.503929 -2.142101
Zn 2.330549 5.189721 5.096743
O 2.330549 5.189721 2.459148
Zn 3.169039 3.503929 5.194995
O 3.169039 3.503929 2.557400
Zn 2.330549 5.189721 9.796244
O 2.330549 5.189721 7.158649
Zn 3.169039 3.503929 9.894496
O 3.169039 3.503929 7.256901
Zn 0.015471 8.087605 -1.750878
O 0.015471 8.087605 -4.388473
Zn 0.853961 6.401813 -1.652626
O 0.853961 6.401813 -4.290221
Zn 0.015471 8.087605 2.948623
O 0.015471 8.087605 0.311028
Zn 0.853961 6.401813 3.046875
O 0.853961 6.401813 0.409280
Zn 0.015471 8.087605 7.648124
O 0.015471 8.087605 5.010529
Zn 0.853961 6.401813 7.746376
O 0.853961 6.401813 5.108781
