108
A
Zn -2.079880 2.248584 0.593953
O -2.079880 2.248584 -1.636712
Zn -0.736024 0.710048 2.261540
O -0.736024 0.710048 0.030875
Zn -2.079880 2.248584 4.925341
O -2.079880 2.248584 2.694676
Zn -0.736024 0.710048 6.592928
O -0.736024 0.710048 4.362263
Zn -2.079880 2.248584 9.256729
O -2.079880 2.248584 7.026064
Zn -0.736024 0.710048 10.924316
O -0.736024 0.710048 8.693651
Zn -4.895784 5.207215 -3.112607
O -4.895784 5.207215 -5.343272
Zn -3.551928 3.668680 -1.445020
O -3.551928 3.668680 -3.675685
Zn -4.895784 5.207215 1.218781
O -4.895784 5.207215 -1.011884
Zn -3.551928 3.668680 2.886368
O -3.551928 3.668680 0.655703
Zn -4.895784 5.207215 5.550169
O -4.895784 5.207215 3.319504
Zn -3.551928 3.668680 7.217756
O -3.551928 3.668680 4.987091
Zn -7.711687 8.165847 -6.819167
O -7.711687 8.165847 -9.049832
Zn -6.367831 6.627311 -5.151580
O -6.367831 6.627311 -7.382245
Zn -7.711687 8.165847 -2.487779
O -7.711687 8.165847 -4.718444
Zn -6.367831 6.627311 -0.820192
O -6.367831 6.627311 -3.050857
Zn -7.711687 8.165847 1.843609
O -7.711687 8.165847 -0.387056
Zn -6.367831 6.627311 3.511196
O -6.367831 6.627311 1.280531
Zn 0.930994 2.248584 0.593953
O 0.930994 2.248584 -1.636712
Zn 2.274850 0.710048 2.261540
O 2.274850 0.710048 0.030875
Zn 0.930994 2.248584 4.925341
O 0.930994 2.248584 2.694676
Zn 2.274850 0.710048 6.592928
O 2.274850 0.710048 4.362263
Zn 0.930994 2.248584 9.256729
O 0.930994 2.248584 7.026064
Zn 2.274850 0.710048 10.924316
O 2.274850 0.710048 8.693651
Zn -1.884910 5.207215 -3.112607
O -1.884910 5.207215 -5.343272
Zn -0.541054 3.668680 -1.445020
O -0.541054 3.668680 -3.675685
Zn -1.884910 5.207215 1.218781
O -1.884910 5.207215 -1.011884
Zn -0.541054 3.668680 2.886368
O -0.541054 3.668680 0.655703
Zn -1.884910 5.207215 5.550169
O -1.884910 5.207215 3.319504
Zn -0.541054 3.668680 7.217756
O -0.541054 3.668680 4.987091
Zn -4.700814 8.165847 -6.819167
O -4.700814 8.165847 -9.049832
Zn -3.356958 6.627311 -5.151580
O -3.356958 6.627311 -7.382245
Zn -4.700814 8.165847 -2.487779
O -4.700814 8.165847 -4.718444
Zn -3.356958 6.627311 -0.820192
O -3.356958 6.627311 -3.050857
Zn -4.700814 8.165847 1.843609
O -4.700814 8.165847 -0.387056
Zn -3.356958 6.627311 3.511196
O -3.356958 6.627311 1.280531
Zn 3.941868 2.248584 0.593953
O 3.941868 2.248584 -1.636712
Zn 5.285724 0.710048 2.261540
O 5.285724 0.710048 0.030875
Zn 3.941868 2.248584 4.925341
O 3.941868 2.248584 2.694676
Zn 5.285724 0.710048 6.592928
O 5.285724 0.710048 4.362263
Zn 3.941868 2.248584 9.256729
O 3.941868 2.248584 7.026064
Zn 5.285724 0.710048 10.924316
O 5.285724 0.710048 8.693651
Zn 1.125964 5.207215 -3.112607
O 1.125964 5.207215 -5.343272
Zn 2.469820 3.668680 -1.445020
O 2.469820 3.668680 -3.675685
Zn 1.125964 5.207215 1.218781
O 1.125964 5.207215 -1.011884
Zn 2.469820 3.668680 2.886368
O 2.469820 3.668680 0.655703
Zn 1.125964 5.207215 5.550169
O 1.125964 5.207215 3.319504
Zn 2.469820 3.668680 7.217756
O 2.469820 3.668680 4.987091
Zn -1.689940 8.165847 -6.819167
O -1.689940 8.165847 -9.049832
Zn -0.346084 6.627311 -5.151580
O -0.346084 6.627311 -7.382245
Zn -1.689940 8.165847 -2.487779
O -1.689940 8.165847 -4.718444
Zn -0.346084 6.627311 -0.820192
O -0.346084 6.627311 -3.050857
Zn -1.689940 8.165847 1.843609
O -1.689940 8.165847 -0.387056
Zn -0.346084 6.627311 3.511196
O -0.346084 6.627311 1.280531
