108
A
Zn -1.840537 2.270094 3.467424
O -1.840537 2.270094 1.043046
Zn -0.731722 0.658984 1.212189
O -0.731722 0.658984 3.298281
Zn -1.840537 2.270094 7.977894
O -1.840537 2.270094 5.553516
Zn -0.731722 0.658984 5.722659
O -0.731722 0.658984 7.808751
Zn -1.840537 2.270094 12.488364
O -1.840537 2.270094 10.063986
Zn -0.731722 0.658984 10.233129
O -0.731722 0.658984 12.319221
Zn -4.412796 5.199173 3.467424
O -4.412796 5.199173 1.043046
Zn -3.303980 3.588063 1.212189
O -3.303980 3.588063 3.298281
Zn -4.412796 5.199173 7.977894
O -4.412796 5.199173 5.553516
Zn -3.303980 3.588063 5.722659
O -3.303980 3.588063 7.808751
Zn -4.412796 5.199173 12.488364
O -4.412796 5.199173 10.063986
Zn -3.303980 3.588063 10.233129
O -3.303980 3.588063 12.319221
Zn -6.985054 8.128251 3.467424
O -6.985054 8.128251 1.043046
Zn -5.876239 6.517141 1.212189
O -5.876239 6.517141 3.298281
Zn -6.985054 8.128251 7.977894
O -6.985054 8.128251 5.553516
Zn -5.876239 6.517141 5.722659
O -5.876239 6.517141 7.808751
Zn -6.985054 8.128251 12.488364
O -6.985054 8.128251 10.063986
Zn -5.876239 6.517141 10.233129
O -5.876239 6.517141 12.319221
Zn 1.219147 2.270094 3.467424
O 1.219147 2.270094 1.043046
Zn 2.327962 0.658984 1.212189
O 2.327962 0.658984 3.298281
Zn 1.219147 2.270094 7.977894
O 1.219147 2.270094 5.553516
Zn 2.327962 0.658984 5.722659
O 2.327962 0.658984 7.808751
Zn 1.219147 2.270094 12.488364
O 1.219147 2.270094 10.063986
Zn 2.327962 0.658984 10.233129
O 2.327962 0.658984 12.319221
Zn -1.353112 5.199173 3.467424
O -1.353112 5.199173 1.043046
Zn -0.244297 3.588063 1.212189
O -0.244297 3.588063 3.298281
Zn -1.353112 5.199173 7.977894
O -1.353112 5.199173 5.553516
Zn -0.244297 3.588063 5.722659
O -0.244297 3.588063 7.808751
Zn -1.353112 5.199173 12.488364
O -1.353112 5.199173 10.063986
Zn -0.244297 3.588063 10.233129
O -0.244297 3.588063 12.319221
Zn -3.925371 8.128251 3.467424
O -3.925371 8.128251 1.043046
Zn -2.816555 6.517141 1.212189
O -2.816555 6.517141 3.298281
Zn -3.925371 8.128251 7.977894
O -3.925371 8.128251 5.553516
Zn -2.816555 6.517141 5.722659
O -2.816555 6.517141 7.808751
Zn -3.925371 8.128251 12.488364
O -3.925371 8.128251 10.063986
Zn -2.816555 6.517141 10.233129
O -2.816555 6.517141 12.319221
Zn 4.278830 2.270094 3.467424
O 4.278830 2.270094 1.043046
Zn 5.387646 0.658984 1.212189
O 5.387646 0.658984 3.298281
Zn 4.278830 2.270094 7.977894
O 4.278830 2.270094 5.553516
Zn 5.387646 0.658984 5.722659
O 5.387646 0.658984 7.808751
Zn 4.278830 2.270094 12.488364
O 4.278830 2.270094 10.063986
Zn 5.387646 0.658984 10.233129
O 5.387646 0.658984 12.319221
Zn 1.706572 5.199173 3.467424
O 1.706572 5.199173 1.043046
Zn 2.815387 3.588063 1.212189
O 2.815387 3.588063 3.298281
Zn 1.706572 5.199173 7.977894
O 1.706572 5.199173 5.553516
Zn 2.815387 3.588063 5.722659
O 2.815387 3.588063 7.808751
Zn 1.706572 5.199173 12.488364
O 1.706572 5.199173 10.063986
Zn 2.815387 3.588063 10.233129
O 2.815387 3.588063 12.319221
Zn -0.865687 8.128251 3.467424
O -0.865687 8.128251 1.043046
Zn 0.243128 6.517141 1.212189
O 0.243128 6.517141 3.298281
Zn -0.865687 8.128251 7.977894
O -0.865687 8.128251 5.553516
Zn 0.243128 6.517141 5.722659
O 0.243128 6.517141 7.808751
Zn -0.865687 8.128251 12.488364
O -0.865687 8.128251 10.063986
Zn 0.243128 6.517141 10.233129
O 0.243128 6.517141 12.319221
