108
A
Zn -1.867637 2.267748 3.446514
O -1.867637 2.267748 1.044058
Zn -0.731694 0.664614 1.201228
O -0.731694 0.664614 3.289344
Zn -1.867637 2.267748 7.937086
O -1.867637 2.267748 5.534630
Zn -0.731694 0.664614 5.691800
O -0.731694 0.664614 7.779916
Zn -1.867637 2.267748 12.427658
O -1.867637 2.267748 10.025202
Zn -0.731694 0.664614 10.182372
O -0.731694 0.664614 12.270488
Zn -4.466967 5.200110 3.446514
O -4.466967 5.200110 1.044058
Zn -3.331024 3.596976 1.201228
O -3.331024 3.596976 3.289344
Zn -4.466967 5.200110 7.937086
O -4.466967 5.200110 5.534630
Zn -3.331024 3.596976 5.691800
O -3.331024 3.596976 7.779916
Zn -4.466967 5.200110 12.427658
O -4.466967 5.200110 10.025202
Zn -3.331024 3.596976 10.182372
O -3.331024 3.596976 12.270488
Zn -7.066297 8.132473 3.446514
O -7.066297 8.132473 1.044058
Zn -5.930354 6.529338 1.201228
O -5.930354 6.529338 3.289344
Zn -7.066297 8.132473 7.937086
O -7.066297 8.132473 5.534630
Zn -5.930354 6.529338 5.691800
O -5.930354 6.529338 7.779916
Zn -7.066297 8.132473 12.427658
O -7.066297 8.132473 10.025202
Zn -5.930354 6.529338 10.182372
O -5.930354 6.529338 12.270488
Zn 1.186624 2.267748 3.446514
O 1.186624 2.267748 1.044058
Zn 2.322567 0.664614 1.201228
O 2.322567 0.664614 3.289344
Zn 1.186624 2.267748 7.937086
O 1.186624 2.267748 5.534630
Zn 2.322567 0.664614 5.691800
O 2.322567 0.664614 7.779916
Zn 1.186624 2.267748 12.427658
O 1.186624 2.267748 10.025202
Zn 2.322567 0.664614 10.182372
O 2.322567 0.664614 12.270488
Zn -1.412707 5.200110 3.446514
O -1.412707 5.200110 1.044058
Zn -0.276764 3.596976 1.201228
O -0.276764 3.596976 3.289344
Zn -1.412707 5.200110 7.937086
O -1.412707 5.200110 5.534630
Zn -0.276764 3.596976 5.691800
O -0.276764 3.596976 7.779916
Zn -1.412707 5.200110 12.427658
O -1.412707 5.200110 10.025202
Zn -0.276764 3.596976 10.182372
O -0.276764 3.596976 12.270488
Zn -4.012037 8.132473 3.446514
O -4.012037 8.132473 1.044058
Zn -2.876094 6.529338 1.201228
O -2.876094 6.529338 3.289344
Zn -4.012037 8.132473 7.937086
O -4.012037 8.132473 5.534630
Zn -2.876094 6.529338 5.691800
O -2.876094 6.529338 7.779916
Zn -4.012037 8.132473 12.427658
O -4.012037 8.132473 10.025202
Zn -2.876094 6.529338 10.182372
O -2.876094 6.529338 12.270488
Zn 4.240884 2.267748 3.446514
O 4.240884 2.267748 1.044058
Zn 5.376827 0.664614 1.201228
O 5.376827 0.664614 3.289344
Zn 4.240884 2.267748 7.937086
O 4.240884 2.267748 5.534630
Zn 5.376827 0.664614 5.691800
O 5.376827 0.664614 7.779916
Zn 4.240884 2.267748 12.427658
O 4.240884 2.267748 10.025202
Zn 5.376827 0.664614 10.182372
O 5.376827 0.664614 12.270488
Zn 1.641554 5.200110 3.446514
O 1.641554 5.200110 1.044058
Zn 2.777497 3.596976 1.201228
O 2.777497 3.596976 3.289344
Zn 1.641554 5.200110 7.937086
O 1.641554 5.200110 5.534630
Zn 2.777497 3.596976 5.691800
O 2.777497 3.596976 7.779916
Zn 1.641554 5.200110 12.427658
O 1.641554 5.200110 10.025202
Zn 2.777497 3.596976 10.182372
O 2.777497 3.596976 12.270488
Zn -0.957777 8.132473 3.446514
O -0.957777 8.132473 1.044058
Zn 0.178166 6.529338 1.201228
O 0.178166 6.529338 3.289344
Zn -0.957777 8.132473 7.937086
O -0.957777 8.132473 5.534630
Zn 0.178166 6.529338 5.691800
O 0.178166 6.529338 7.779916
Zn -0.957777 8.132473 12.427658
O -0.957777 8.132473 10.025202
Zn 0.178166 6.529338 10.182372
O 0.178166 6.529338 12.270488
