108
A
Zn -1.015034 2.332358 4.084265
O -1.015034 2.332358 0.993298
Zn -0.785682 0.503136 1.545483
O -0.785682 0.503136 3.532080
Zn -1.015034 2.332358 9.161828
O -1.015034 2.332358 6.070861
Zn -0.785682 0.503136 6.623046
O -0.785682 0.503136 8.609643
Zn -1.015034 2.332358 14.239391
O -1.015034 2.332358 11.148424
Zn -0.785682 0.503136 11.700609
O -0.785682 0.503136 13.687206
Zn -2.815750 5.167851 4.084265
O -2.815750 5.167851 0.993298
Zn -2.586398 3.338629 1.545483
O -2.586398 3.338629 3.532080
Zn -2.815750 5.167851 9.161828
O -2.815750 5.167851 6.070861
Zn -2.586398 3.338629 6.623046
O -2.586398 3.338629 8.609643
Zn -2.815750 5.167851 14.239391
O -2.815750 5.167851 11.148424
Zn -2.586398 3.338629 11.700609
O -2.586398 3.338629 13.687206
Zn -4.616466 8.003345 4.084265
O -4.616466 8.003345 0.993298
Zn -4.387114 6.174123 1.545483
O -4.387114 6.174123 3.532080
Zn -4.616466 8.003345 9.161828
O -4.616466 8.003345 6.070861
Zn -4.387114 6.174123 6.623046
O -4.387114 6.174123 8.609643
Zn -4.616466 8.003345 14.239391
O -4.616466 8.003345 11.148424
Zn -4.387114 6.174123 11.700609
O -4.387114 6.174123 13.687206
Zn 2.199214 2.332358 4.084265
O 2.199214 2.332358 0.993298
Zn 2.428567 0.503136 1.545483
O 2.428567 0.503136 3.532080
Zn 2.199214 2.332358 9.161828
O 2.199214 2.332358 6.070861
Zn 2.428567 0.503136 6.623046
O 2.428567 0.503136 8.609643
Zn 2.199214 2.332358 14.239391
O 2.199214 2.332358 11.148424
Zn 2.428567 0.503136 11.700609
O 2.428567 0.503136 13.687206
Zn 0.398498 5.167851 4.084265
O 0.398498 5.167851 0.993298
Zn 0.627851 3.338629 1.545483
O 0.627851 3.338629 3.532080
Zn 0.398498 5.167851 9.161828
O 0.398498 5.167851 6.070861
Zn 0.627851 3.338629 6.623046
O 0.627851 3.338629 8.609643
Zn 0.398498 5.167851 14.239391
O 0.398498 5.167851 11.148424
Zn 0.627851 3.338629 11.700609
O 0.627851 3.338629 13.687206
Zn -1.402217 8.003345 4.084265
O -1.402217 8.003345 0.993298
Zn -1.172865 6.174123 1.545483
O -1.172865 6.174123 3.532080
Zn -1.402217 8.003345 9.161828
O -1.402217 8.003345 6.070861
Zn -1.172865 6.174123 6.623046
O -1.172865 6.174123 8.609643
Zn -1.402217 8.003345 14.239391
O -1.402217 8.003345 11.148424
Zn -1.172865 6.174123 11.700609
O -1.172865 6.174123 13.687206
Zn 5.413463 2.332358 4.084265
O 5.413463 2.332358 0.993298
Zn 5.642815 0.503136 1.545483
O 5.642815 0.503136 3.532080
Zn 5.413463 2.332358 9.161828
O 5.413463 2.332358 6.070861
Zn 5.642815 0.503136 6.623046
O 5.642815 0.503136 8.609643
Zn 5.413463 2.332358 14.239391
O 5.413463 2.332358 11.148424
Zn 5.642815 0.503136 11.700609
O 5.642815 0.503136 13.687206
Zn 3.612747 5.167851 4.084265
O 3.612747 5.167851 0.993298
Zn 3.842099 3.338629 1.545483
O 3.842099 3.338629 3.532080
Zn 3.612747 5.167851 9.161828
O 3.612747 5.167851 6.070861
Zn 3.842099 3.338629 6.623046
O 3.842099 3.338629 8.609643
Zn 3.612747 5.167851 14.239391
O 3.612747 5.167851 11.148424
Zn 3.842099 3.338629 11.700609
O 3.842099 3.338629 13.687206
Zn 1.812031 8.003345 4.084265
O 1.812031 8.003345 0.993298
Zn 2.041383 6.174123 1.545483
O 2.041383 6.174123 3.532080
Zn 1.812031 8.003345 9.161828
O 1.812031 8.003345 6.070861
Zn 2.041383 6.174123 6.623046
O 2.041383 6.174123 8.609643
Zn 1.812031 8.003345 14.239391
O 1.812031 8.003345 11.148424
Zn 2.041383 6.174123 11.700609
O 2.041383 6.174123 13.687206
