108
A
Zn -1.076316 2.328279 4.498400
O -1.076316 2.328279 1.456849
Zn -0.778544 0.513782 2.864878
O -0.778544 0.513782 -0.176673
Zn -1.076316 2.328279 9.536167
O -1.076316 2.328279 6.494616
Zn -0.778544 0.513782 7.902645
O -0.778544 0.513782 4.861094
Zn -1.076316 2.328279 14.573934
O -1.076316 2.328279 11.532383
Zn -0.778544 0.513782 12.940412
O -0.778544 0.513782 9.898861
Zn -2.931175 5.170340 3.782360
O -2.931175 5.170340 0.740809
Zn -2.633403 3.355843 2.148838
O -2.633403 3.355843 -0.892713
Zn -2.931175 5.170340 8.820127
O -2.931175 5.170340 5.778576
Zn -2.633403 3.355843 7.186605
O -2.633403 3.355843 4.145054
Zn -2.931175 5.170340 13.857894
O -2.931175 5.170340 10.816343
Zn -2.633403 3.355843 12.224372
O -2.633403 3.355843 9.182821
Zn -4.786034 8.012401 3.066320
O -4.786034 8.012401 0.024769
Zn -4.488262 6.197904 1.432798
O -4.488262 6.197904 -1.608753
Zn -4.786034 8.012401 8.104087
O -4.786034 8.012401 5.062536
Zn -4.488262 6.197904 6.470565
O -4.488262 6.197904 3.429014
Zn -4.786034 8.012401 13.141854
O -4.786034 8.012401 10.100303
Zn -4.488262 6.197904 11.508332
O -4.488262 6.197904 8.466781
Zn 2.127086 2.328279 4.498400
O 2.127086 2.328279 1.456849
Zn 2.424858 0.513782 2.864878
O 2.424858 0.513782 -0.176673
Zn 2.127086 2.328279 9.536167
O 2.127086 2.328279 6.494616
Zn 2.424858 0.513782 7.902645
O 2.424858 0.513782 4.861094
Zn 2.127086 2.328279 14.573934
O 2.127086 2.328279 11.532383
Zn 2.424858 0.513782 12.940412
O 2.424858 0.513782 9.898861
Zn 0.272227 5.170340 3.782360
O 0.272227 5.170340 0.740809
Zn 0.569999 3.355843 2.148838
O 0.569999 3.355843 -0.892713
Zn 0.272227 5.170340 8.820127
O 0.272227 5.170340 5.778576
Zn 0.569999 3.355843 7.186605
O 0.569999 3.355843 4.145054
Zn 0.272227 5.170340 13.857894
O 0.272227 5.170340 10.816343
Zn 0.569999 3.355843 12.224372
O 0.569999 3.355843 9.182821
Zn -1.582632 8.012401 3.066320
O -1.582632 8.012401 0.024769
Zn -1.284860 6.197904 1.432798
O -1.284860 6.197904 -1.608753
Zn -1.582632 8.012401 8.104087
O -1.582632 8.012401 5.062536
Zn -1.284860 6.197904 6.470565
O -1.284860 6.197904 3.429014
Zn -1.582632 8.012401 13.141854
O -1.582632 8.012401 10.100303
Zn -1.284860 6.197904 11.508332
O -1.284860 6.197904 8.466781
Zn 5.330488 2.328279 4.498400
O 5.330488 2.328279 1.456849
Zn 5.628260 0.513782 2.864878
O 5.628260 0.513782 -0.176673
Zn 5.330488 2.328279 9.536167
O 5.330488 2.328279 6.494616
Zn 5.628260 0.513782 7.902645
O 5.628260 0.513782 4.861094
Zn 5.330488 2.328279 14.573934
O 5.330488 2.328279 11.532383
Zn 5.628260 0.513782 12.940412
O 5.628260 0.513782 9.898861
Zn 3.475629 5.170340 3.782360
O 3.475629 5.170340 0.740809
Zn 3.773401 3.355843 2.148838
O 3.773401 3.355843 -0.892713
Zn 3.475629 5.170340 8.820127
O 3.475629 5.170340 5.778576
Zn 3.773401 3.355843 7.186605
O 3.773401 3.355843 4.145054
Zn 3.475629 5.170340 13.857894
O 3.475629 5.170340 10.816343
Zn 3.773401 3.355843 12.224372
O 3.773401 3.355843 9.182821
Zn 1.620769 8.012401 3.066320
O 1.620769 8.012401 0.024769
Zn 1.918541 6.197904 1.432798
O 1.918541 6.197904 -1.608753
Zn 1.620769 8.012401 8.104087
O 1.620769 8.012401 5.062536
Zn 1.918541 6.197904 6.470565
O 1.918541 6.197904 3.429014
Zn 1.620769 8.012401 13.141854
O 1.620769 8.012401 10.100303
Zn 1.918541 6.197904 11.508332
O 1.918541 6.197904 8.466781
