108
A
Zn -1.908049 2.264208 1.258923
O -1.908049 2.264208 -1.110837
Zn -0.731889 0.673079 2.412562
O -0.731889 0.673079 0.042802
Zn -1.908049 2.264208 5.719648
O -1.908049 2.264208 3.349888
Zn -0.731889 0.673079 6.873287
O -0.731889 0.673079 4.503527
Zn -1.908049 2.264208 10.180373
O -1.908049 2.264208 7.810613
Zn -0.731889 0.673079 11.334012
O -0.731889 0.673079 8.964252
Zn -4.547987 5.201496 -1.900077
O -4.547987 5.201496 -4.269837
Zn -3.371827 3.610367 -0.746438
O -3.371827 3.610367 -3.116198
Zn -4.547987 5.201496 2.560648
O -4.547987 5.201496 0.190888
Zn -3.371827 3.610367 3.714287
O -3.371827 3.610367 1.344527
Zn -4.547987 5.201496 7.021373
O -4.547987 5.201496 4.651613
Zn -3.371827 3.610367 8.175012
O -3.371827 3.610367 5.805252
Zn -7.187924 8.138784 -5.059077
O -7.187924 8.138784 -7.428837
Zn -6.011765 6.547655 -3.905438
O -6.011765 6.547655 -6.275198
Zn -7.187924 8.138784 -0.598352
O -7.187924 8.138784 -2.968112
Zn -6.011765 6.547655 0.555287
O -6.011765 6.547655 -1.814473
Zn -7.187924 8.138784 3.862373
O -7.187924 8.138784 1.492613
Zn -6.011765 6.547655 5.016012
O -6.011765 6.547655 2.646252
Zn 1.138077 2.264208 1.258923
O 1.138077 2.264208 -1.110837
Zn 2.314236 0.673079 2.412562
O 2.314236 0.673079 0.042802
Zn 1.138077 2.264208 5.719648
O 1.138077 2.264208 3.349888
Zn 2.314236 0.673079 6.873287
O 2.314236 0.673079 4.503527
Zn 1.138077 2.264208 10.180373
O 1.138077 2.264208 7.810613
Zn 2.314236 0.673079 11.334012
O 2.314236 0.673079 8.964252
Zn -1.501861 5.201496 -1.900077
O -1.501861 5.201496 -4.269837
Zn -0.325702 3.610367 -0.746438
O -0.325702 3.610367 -3.116198
Zn -1.501861 5.201496 2.560648
O -1.501861 5.201496 0.190888
Zn -0.325702 3.610367 3.714287
O -0.325702 3.610367 1.344527
Zn -1.501861 5.201496 7.021373
O -1.501861 5.201496 4.651613
Zn -0.325702 3.610367 8.175012
O -0.325702 3.610367 5.805252
Zn -4.141799 8.138784 -5.059077
O -4.141799 8.138784 -7.428837
Zn -2.965639 6.547655 -3.905438
O -2.965639 6.547655 -6.275198
Zn -4.141799 8.138784 -0.598352
O -4.141799 8.138784 -2.968112
Zn -2.965639 6.547655 0.555287
O -2.965639 6.547655 -1.814473
Zn -4.141799 8.138784 3.862373
O -4.141799 8.138784 1.492613
Zn -2.965639 6.547655 5.016012
O -2.965639 6.547655 2.646252
Zn 4.184202 2.264208 1.258923
O 4.184202 2.264208 -1.110837
Zn 5.360362 0.673079 2.412562
O 5.360362 0.673079 0.042802
Zn 4.184202 2.264208 5.719648
O 4.184202 2.264208 3.349888
Zn 5.360362 0.673079 6.873287
O 5.360362 0.673079 4.503527
Zn 4.184202 2.264208 10.180373
O 4.184202 2.264208 7.810613
Zn 5.360362 0.673079 11.334012
O 5.360362 0.673079 8.964252
Zn 1.544264 5.201496 -1.900077
O 1.544264 5.201496 -4.269837
Zn 2.720424 3.610367 -0.746438
O 2.720424 3.610367 -3.116198
Zn 1.544264 5.201496 2.560648
O 1.544264 5.201496 0.190888
Zn 2.720424 3.610367 3.714287
O 2.720424 3.610367 1.344527
Zn 1.544264 5.201496 7.021373
O 1.544264 5.201496 4.651613
Zn 2.720424 3.610367 8.175012
O 2.720424 3.610367 5.805252
Zn -1.095674 8.138784 -5.059077
O -1.095674 8.138784 -7.428837
Zn 0.080486 6.547655 -3.905438
O 0.080486 6.547655 -6.275198
Zn -1.095674 8.138784 -0.598352
O -1.095674 8.138784 -2.968112
Zn 0.080486 6.547655 0.555287
O 0.080486 6.547655 -1.814473
Zn -1.095674 8.138784 3.862373
O -1.095674 8.138784 1.492613
Zn 0.080486 6.547655 5.016012
O 0.080486 6.547655 2.646252
