108
A
Zn -0.828154 2.344332 4.219275
O -0.828154 2.344332 0.977676
Zn -0.810132 0.471459 1.620799
O -0.810132 0.471459 3.576152
Zn -0.828154 2.344332 9.416226
O -0.828154 2.344332 6.174627
Zn -0.810132 0.471459 6.817750
O -0.810132 0.471459 8.773103
Zn -0.828154 2.344332 14.613177
O -0.828154 2.344332 11.371578
Zn -0.810132 0.471459 12.014701
O -0.810132 0.471459 13.970054
Zn -2.466440 5.160124 4.219275
O -2.466440 5.160124 0.977676
Zn -2.448418 3.287251 1.620799
O -2.448418 3.287251 3.576152
Zn -2.466440 5.160124 9.416226
O -2.466440 5.160124 6.174627
Zn -2.448418 3.287251 6.817750
O -2.448418 3.287251 8.773103
Zn -2.466440 5.160124 14.613177
O -2.466440 5.160124 11.371578
Zn -2.448418 3.287251 12.014701
O -2.448418 3.287251 13.970054
Zn -4.104726 7.975915 4.219275
O -4.104726 7.975915 0.977676
Zn -4.086704 6.103042 1.620799
O -4.086704 6.103042 3.576152
Zn -4.104726 7.975915 9.416226
O -4.104726 7.975915 6.174627
Zn -4.086704 6.103042 6.817750
O -4.086704 6.103042 8.773103
Zn -4.104726 7.975915 14.613177
O -4.104726 7.975915 11.371578
Zn -4.086704 6.103042 12.014701
O -4.086704 6.103042 13.970054
Zn 2.418634 2.344332 4.219275
O 2.418634 2.344332 0.977676
Zn 2.436656 0.471459 1.620799
O 2.436656 0.471459 3.576152
Zn 2.418634 2.344332 9.416226
O 2.418634 2.344332 6.174627
Zn 2.436656 0.471459 6.817750
O 2.436656 0.471459 8.773103
Zn 2.418634 2.344332 14.613177
O 2.418634 2.344332 11.371578
Zn 2.436656 0.471459 12.014701
O 2.436656 0.471459 13.970054
Zn 0.780349 5.160124 4.219275
O 0.780349 5.160124 0.977676
Zn 0.798371 3.287251 1.620799
O 0.798371 3.287251 3.576152
Zn 0.780349 5.160124 9.416226
O 0.780349 5.160124 6.174627
Zn 0.798371 3.287251 6.817750
O 0.798371 3.287251 8.773103
Zn 0.780349 5.160124 14.613177
O 0.780349 5.160124 11.371578
Zn 0.798371 3.287251 12.014701
O 0.798371 3.287251 13.970054
Zn -0.857937 7.975915 4.219275
O -0.857937 7.975915 0.977676
Zn -0.839915 6.103042 1.620799
O -0.839915 6.103042 3.576152
Zn -0.857937 7.975915 9.416226
O -0.857937 7.975915 6.174627
Zn -0.839915 6.103042 6.817750
O -0.839915 6.103042 8.773103
Zn -0.857937 7.975915 14.613177
O -0.857937 7.975915 11.371578
Zn -0.839915 6.103042 12.014701
O -0.839915 6.103042 13.970054
Zn 5.665423 2.344332 4.219275
O 5.665423 2.344332 0.977676
Zn 5.683445 0.471459 1.620799
O 5.683445 0.471459 3.576152
Zn 5.665423 2.344332 9.416226
O 5.665423 2.344332 6.174627
Zn 5.683445 0.471459 6.817750
O 5.683445 0.471459 8.773103
Zn 5.665423 2.344332 14.613177
O 5.665423 2.344332 11.371578
Zn 5.683445 0.471459 12.014701
O 5.683445 0.471459 13.970054
Zn 4.027137 5.160124 4.219275
O 4.027137 5.160124 0.977676
Zn 4.045159 3.287251 1.620799
O 4.045159 3.287251 3.576152
Zn 4.027137 5.160124 9.416226
O 4.027137 5.160124 6.174627
Zn 4.045159 3.287251 6.817750
O 4.045159 3.287251 8.773103
Zn 4.027137 5.160124 14.613177
O 4.027137 5.160124 11.371578
Zn 4.045159 3.287251 12.014701
O 4.045159 3.287251 13.970054
Zn 2.388851 7.975915 4.219275
O 2.388851 7.975915 0.977676
Zn 2.406873 6.103042 1.620799
O 2.406873 6.103042 3.576152
Zn 2.388851 7.975915 9.416226
O 2.388851 7.975915 6.174627
Zn 2.406873 6.103042 6.817750
O 2.406873 6.103042 8.773103
Zn 2.388851 7.975915 14.613177
O 2.388851 7.975915 11.371578
Zn 2.406873 6.103042 12.014701
O 2.406873 6.103042 13.970054
