108
A
Zn -1.271987 2.314719 3.896066
O -1.271987 2.314719 1.012364
Zn -0.758838 0.548686 1.441851
O -0.758838 0.548686 3.466579
Zn -1.271987 2.314719 8.804496
O -1.271987 2.314719 5.920794
Zn -0.758838 0.548686 6.350281
O -0.758838 0.548686 8.375009
Zn -1.271987 2.314719 13.712926
O -1.271987 2.314719 10.829224
Zn -0.758838 0.548686 11.258711
O -0.758838 0.548686 13.283439
Zn -3.302812 5.178124 3.896066
O -3.302812 5.178124 1.012364
Zn -2.789663 3.412090 1.441851
O -2.789663 3.412090 3.466579
Zn -3.302812 5.178124 8.804496
O -3.302812 5.178124 5.920794
Zn -2.789663 3.412090 6.350281
O -2.789663 3.412090 8.375009
Zn -3.302812 5.178124 13.712926
O -3.302812 5.178124 10.829224
Zn -2.789663 3.412090 11.258711
O -2.789663 3.412090 13.283439
Zn -5.333637 8.041529 3.896066
O -5.333637 8.041529 1.012364
Zn -4.820488 6.275495 1.441851
O -4.820488 6.275495 3.466579
Zn -5.333637 8.041529 8.804496
O -5.333637 8.041529 5.920794
Zn -4.820488 6.275495 6.350281
O -4.820488 6.275495 8.375009
Zn -5.333637 8.041529 13.712926
O -5.333637 8.041529 10.829224
Zn -4.820488 6.275495 11.258711
O -4.820488 6.275495 13.283439
Zn 1.896163 2.314719 3.896066
O 1.896163 2.314719 1.012364
Zn 2.409312 0.548686 1.441851
O 2.409312 0.548686 3.466579
Zn 1.896163 2.314719 8.804496
O 1.896163 2.314719 5.920794
Zn 2.409312 0.548686 6.350281
O 2.409312 0.548686 8.375009
Zn 1.896163 2.314719 13.712926
O 1.896163 2.314719 10.829224
Zn 2.409312 0.548686 11.258711
O 2.409312 0.548686 13.283439
Zn -0.134662 5.178124 3.896066
O -0.134662 5.178124 1.012364
Zn 0.378487 3.412090 1.441851
O 0.378487 3.412090 3.466579
Zn -0.134662 5.178124 8.804496
O -0.134662 5.178124 5.920794
Zn 0.378487 3.412090 6.350281
O 0.378487 3.412090 8.375009
Zn -0.134662 5.178124 13.712926
O -0.134662 5.178124 10.829224
Zn 0.378487 3.412090 11.258711
O 0.378487 3.412090 13.283439
Zn -2.165487 8.041529 3.896066
O -2.165487 8.041529 1.012364
Zn -1.652338 6.275495 1.441851
O -1.652338 6.275495 3.466579
Zn -2.165487 8.041529 8.804496
O -2.165487 8.041529 5.920794
Zn -1.652338 6.275495 6.350281
O -1.652338 6.275495 8.375009
Zn -2.165487 8.041529 13.712926
O -2.165487 8.041529 10.829224
Zn -1.652338 6.275495 11.258711
O -1.652338 6.275495 13.283439
Zn 5.064313 2.314719 3.896066
O 5.064313 2.314719 1.012364
Zn 5.577462 0.548686 1.441851
O 5.577462 0.548686 3.466579
Zn 5.064313 2.314719 8.804496
O 5.064313 2.314719 5.920794
Zn 5.577462 0.548686 6.350281
O 5.577462 0.548686 8.375009
Zn 5.064313 2.314719 13.712926
O 5.064313 2.314719 10.829224
Zn 5.577462 0.548686 11.258711
O 5.577462 0.548686 13.283439
Zn 3.033488 5.178124 3.896066
O 3.033488 5.178124 1.012364
Zn 3.546637 3.412090 1.441851
O 3.546637 3.412090 3.466579
Zn 3.033488 5.178124 8.804496
O 3.033488 5.178124 5.920794
Zn 3.546637 3.412090 6.350281
O 3.546637 3.412090 8.375009
Zn 3.033488 5.178124 13.712926
O 3.033488 5.178124 10.829224
Zn 3.546637 3.412090 11.258711
O 3.546637 3.412090 13.283439
Zn 1.002663 8.041529 3.896066
O 1.002663 8.041529 1.012364
Zn 1.515812 6.275495 1.441851
O 1.515812 6.275495 3.466579
Zn 1.002663 8.041529 8.804496
O 1.002663 8.041529 5.920794
Zn 1.515812 6.275495 6.350281
O 1.515812 6.275495 8.375009
Zn 1.002663 8.041529 13.712926
O 1.002663 8.041529 10.829224
Zn 1.515812 6.275495 11.258711
O 1.515812 6.275495 13.283439
