108
A
Zn -0.859617 2.342364 4.196649
O -0.859617 2.342364 0.980404
Zn -0.805741 0.476711 1.608122
O -0.805741 0.476711 3.568931
Zn -0.859617 2.342364 9.373702
O -0.859617 2.342364 6.157457
Zn -0.805741 0.476711 6.785175
O -0.805741 0.476711 8.745984
Zn -0.859617 2.342364 14.550755
O -0.859617 2.342364 11.334510
Zn -0.805741 0.476711 11.962228
O -0.805741 0.476711 13.923037
Zn -2.524974 5.161439 4.196649
O -2.524974 5.161439 0.980404
Zn -2.471098 3.295786 1.608122
O -2.471098 3.295786 3.568931
Zn -2.524974 5.161439 9.373702
O -2.524974 5.161439 6.157457
Zn -2.471098 3.295786 6.785175
O -2.471098 3.295786 8.745984
Zn -2.524974 5.161439 14.550755
O -2.524974 5.161439 11.334510
Zn -2.471098 3.295786 11.962228
O -2.471098 3.295786 13.923037
Zn -4.190332 7.980514 4.196649
O -4.190332 7.980514 0.980404
Zn -4.136456 6.114861 1.608122
O -4.136456 6.114861 3.568931
Zn -4.190332 7.980514 9.373702
O -4.190332 7.980514 6.157457
Zn -4.136456 6.114861 6.785175
O -4.136456 6.114861 8.745984
Zn -4.190332 7.980514 14.550755
O -4.190332 7.980514 11.334510
Zn -4.136456 6.114861 11.962228
O -4.136456 6.114861 13.923037
Zn 2.381748 2.342364 4.196649
O 2.381748 2.342364 0.980404
Zn 2.435624 0.476711 1.608122
O 2.435624 0.476711 3.568931
Zn 2.381748 2.342364 9.373702
O 2.381748 2.342364 6.157457
Zn 2.435624 0.476711 6.785175
O 2.435624 0.476711 8.745984
Zn 2.381748 2.342364 14.550755
O 2.381748 2.342364 11.334510
Zn 2.435624 0.476711 11.962228
O 2.435624 0.476711 13.923037
Zn 0.716391 5.161439 4.196649
O 0.716391 5.161439 0.980404
Zn 0.770267 3.295786 1.608122
O 0.770267 3.295786 3.568931
Zn 0.716391 5.161439 9.373702
O 0.716391 5.161439 6.157457
Zn 0.770267 3.295786 6.785175
O 0.770267 3.295786 8.745984
Zn 0.716391 5.161439 14.550755
O 0.716391 5.161439 11.334510
Zn 0.770267 3.295786 11.962228
O 0.770267 3.295786 13.923037
Zn -0.948967 7.980514 4.196649
O -0.948967 7.980514 0.980404
Zn -0.895091 6.114861 1.608122
O -0.895091 6.114861 3.568931
Zn -0.948967 7.980514 9.373702
O -0.948967 7.980514 6.157457
Zn -0.895091 6.114861 6.785175
O -0.895091 6.114861 8.745984
Zn -0.948967 7.980514 14.550755
O -0.948967 7.980514 11.334510
Zn -0.895091 6.114861 11.962228
O -0.895091 6.114861 13.923037
Zn 5.623113 2.342364 4.196649
O 5.623113 2.342364 0.980404
Zn 5.676989 0.476711 1.608122
O 5.676989 0.476711 3.568931
Zn 5.623113 2.342364 9.373702
O 5.623113 2.342364 6.157457
Zn 5.676989 0.476711 6.785175
O 5.676989 0.476711 8.745984
Zn 5.623113 2.342364 14.550755
O 5.623113 2.342364 11.334510
Zn 5.676989 0.476711 11.962228
O 5.676989 0.476711 13.923037
Zn 3.957756 5.161439 4.196649
O 3.957756 5.161439 0.980404
Zn 4.011632 3.295786 1.608122
O 4.011632 3.295786 3.568931
Zn 3.957756 5.161439 9.373702
O 3.957756 5.161439 6.157457
Zn 4.011632 3.295786 6.785175
O 4.011632 3.295786 8.745984
Zn 3.957756 5.161439 14.550755
O 3.957756 5.161439 11.334510
Zn 4.011632 3.295786 11.962228
O 4.011632 3.295786 13.923037
Zn 2.292398 7.980514 4.196649
O 2.292398 7.980514 0.980404
Zn 2.346274 6.114861 1.608122
O 2.346274 6.114861 3.568931
Zn 2.292398 7.980514 9.373702
O 2.292398 7.980514 6.157457
Zn 2.346274 6.114861 6.785175
O 2.346274 6.114861 8.745984
Zn 2.292398 7.980514 14.550755
O 2.292398 7.980514 11.334510
Zn 2.346274 6.114861 11.962228
O 2.346274 6.114861 13.923037
