108
A
Zn -1.462315 2.300697 3.754575
O -1.462315 2.300697 1.024518
Zn -0.744476 0.584052 1.365028
O -0.744476 0.584052 3.414065
Zn -1.462315 2.300697 8.533668
O -1.462315 2.300697 5.803611
Zn -0.744476 0.584052 6.144121
O -0.744476 0.584052 8.193158
Zn -1.462315 2.300697 13.312761
O -1.462315 2.300697 10.582704
Zn -0.744476 0.584052 10.923214
O -0.744476 0.584052 12.972251
Zn -3.669106 5.185446 3.754575
O -3.669106 5.185446 1.024518
Zn -2.951267 3.468801 1.365028
O -2.951267 3.468801 3.414065
Zn -3.669106 5.185446 8.533668
O -3.669106 5.185446 5.803611
Zn -2.951267 3.468801 6.144121
O -2.951267 3.468801 8.193158
Zn -3.669106 5.185446 13.312761
O -3.669106 5.185446 10.582704
Zn -2.951267 3.468801 10.923214
O -2.951267 3.468801 12.972251
Zn -5.875897 8.070194 3.754575
O -5.875897 8.070194 1.024518
Zn -5.158058 6.353550 1.365028
O -5.158058 6.353550 3.414065
Zn -5.875897 8.070194 8.533668
O -5.875897 8.070194 5.803611
Zn -5.158058 6.353550 6.144121
O -5.158058 6.353550 8.193158
Zn -5.875897 8.070194 13.312761
O -5.875897 8.070194 10.582704
Zn -5.158058 6.353550 10.923214
O -5.158058 6.353550 12.972251
Zn 1.670584 2.300697 3.754575
O 1.670584 2.300697 1.024518
Zn 2.388422 0.584052 1.365028
O 2.388422 0.584052 3.414065
Zn 1.670584 2.300697 8.533668
O 1.670584 2.300697 5.803611
Zn 2.388422 0.584052 6.144121
O 2.388422 0.584052 8.193158
Zn 1.670584 2.300697 13.312761
O 1.670584 2.300697 10.582704
Zn 2.388422 0.584052 10.923214
O 2.388422 0.584052 12.972251
Zn -0.536207 5.185446 3.754575
O -0.536207 5.185446 1.024518
Zn 0.181631 3.468801 1.365028
O 0.181631 3.468801 3.414065
Zn -0.536207 5.185446 8.533668
O -0.536207 5.185446 5.803611
Zn 0.181631 3.468801 6.144121
O 0.181631 3.468801 8.193158
Zn -0.536207 5.185446 13.312761
O -0.536207 5.185446 10.582704
Zn 0.181631 3.468801 10.923214
O 0.181631 3.468801 12.972251
Zn -2.742998 8.070194 3.754575
O -2.742998 8.070194 1.024518
Zn -2.025160 6.353550 1.365028
O -2.025160 6.353550 3.414065
Zn -2.742998 8.070194 8.533668
O -2.742998 8.070194 5.803611
Zn -2.025160 6.353550 6.144121
O -2.025160 6.353550 8.193158
Zn -2.742998 8.070194 13.312761
O -2.742998 8.070194 10.582704
Zn -2.025160 6.353550 10.923214
O -2.025160 6.353550 12.972251
Zn 4.803482 2.300697 3.754575
O 4.803482 2.300697 1.024518
Zn 5.521321 0.584052 1.365028
O 5.521321 0.584052 3.414065
Zn 4.803482 2.300697 8.533668
O 4.803482 2.300697 5.803611
Zn 5.521321 0.584052 6.144121
O 5.521321 0.584052 8.193158
Zn 4.803482 2.300697 13.312761
O 4.803482 2.300697 10.582704
Zn 5.521321 0.584052 10.923214
O 5.521321 0.584052 12.972251
Zn 2.596691 5.185446 3.754575
O 2.596691 5.185446 1.024518
Zn 3.314530 3.468801 1.365028
O 3.314530 3.468801 3.414065
Zn 2.596691 5.185446 8.533668
O 2.596691 5.185446 5.803611
Zn 3.314530 3.468801 6.144121
O 3.314530 3.468801 8.193158
Zn 2.596691 5.185446 13.312761
O 2.596691 5.185446 10.582704
Zn 3.314530 3.468801 10.923214
O 3.314530 3.468801 12.972251
Zn 0.389900 8.070194 3.754575
O 0.389900 8.070194 1.024518
Zn 1.107739 6.353550 1.365028
O 1.107739 6.353550 3.414065
Zn 0.389900 8.070194 8.533668
O 0.389900 8.070194 5.803611
Zn 1.107739 6.353550 6.144121
O 1.107739 6.353550 8.193158
Zn 0.389900 8.070194 13.312761
O 0.389900 8.070194 10.582704
Zn 1.107739 6.353550 10.923214
O 1.107739 6.353550 12.972251
