108
A
Zn -1.418867 2.303974 3.160474
O -1.418867 2.303974 0.395333
Zn -0.747316 0.575849 2.728807
O -0.747316 0.575849 -0.036334
Zn -1.418867 2.303974 7.969414
O -1.418867 2.303974 5.204273
Zn -0.747316 0.575849 7.537747
O -0.747316 0.575849 4.772606
Zn -1.418867 2.303974 12.778354
O -1.418867 2.303974 10.013213
Zn -0.747316 0.575849 12.346687
O -0.747316 0.575849 9.581546
Zn -3.585051 5.183797 1.475674
O -3.585051 5.183797 -1.289467
Zn -2.913500 3.455673 1.044007
O -2.913500 3.455673 -1.721134
Zn -3.585051 5.183797 6.284614
O -3.585051 5.183797 3.519473
Zn -2.913500 3.455673 5.852947
O -2.913500 3.455673 3.087806
Zn -3.585051 5.183797 11.093554
O -3.585051 5.183797 8.328413
Zn -2.913500 3.455673 10.661887
O -2.913500 3.455673 7.896746
Zn -5.751234 8.063620 -0.209126
O -5.751234 8.063620 -2.974267
Zn -5.079683 6.335496 -0.640793
O -5.079683 6.335496 -3.405934
Zn -5.751234 8.063620 4.599814
O -5.751234 8.063620 1.834673
Zn -5.079683 6.335496 4.168147
O -5.079683 6.335496 1.403006
Zn -5.751234 8.063620 9.408754
O -5.751234 8.063620 6.643613
Zn -5.079683 6.335496 8.977087
O -5.079683 6.335496 6.211946
Zn 1.722166 2.303974 3.160474
O 1.722166 2.303974 0.395333
Zn 2.393717 0.575849 2.728807
O 2.393717 0.575849 -0.036334
Zn 1.722166 2.303974 7.969414
O 1.722166 2.303974 5.204273
Zn 2.393717 0.575849 7.537747
O 2.393717 0.575849 4.772606
Zn 1.722166 2.303974 12.778354
O 1.722166 2.303974 10.013213
Zn 2.393717 0.575849 12.346687
O 2.393717 0.575849 9.581546
Zn -0.444017 5.183797 1.475674
O -0.444017 5.183797 -1.289467
Zn 0.227534 3.455673 1.044007
O 0.227534 3.455673 -1.721134
Zn -0.444017 5.183797 6.284614
O -0.444017 5.183797 3.519473
Zn 0.227534 3.455673 5.852947
O 0.227534 3.455673 3.087806
Zn -0.444017 5.183797 11.093554
O -0.444017 5.183797 8.328413
Zn 0.227534 3.455673 10.661887
O 0.227534 3.455673 7.896746
Zn -2.610201 8.063620 -0.209126
O -2.610201 8.063620 -2.974267
Zn -1.938650 6.335496 -0.640793
O -1.938650 6.335496 -3.405934
Zn -2.610201 8.063620 4.599814
O -2.610201 8.063620 1.834673
Zn -1.938650 6.335496 4.168147
O -1.938650 6.335496 1.403006
Zn -2.610201 8.063620 9.408754
O -2.610201 8.063620 6.643613
Zn -1.938650 6.335496 8.977087
O -1.938650 6.335496 6.211946
Zn 4.863200 2.303974 3.160474
O 4.863200 2.303974 0.395333
Zn 5.534751 0.575849 2.728807
O 5.534751 0.575849 -0.036334
Zn 4.863200 2.303974 7.969414
O 4.863200 2.303974 5.204273
Zn 5.534751 0.575849 7.537747
O 5.534751 0.575849 4.772606
Zn 4.863200 2.303974 12.778354
O 4.863200 2.303974 10.013213
Zn 5.534751 0.575849 12.346687
O 5.534751 0.575849 9.581546
Zn 2.697016 5.183797 1.475674
O 2.697016 5.183797 -1.289467
Zn 3.368567 3.455673 1.044007
O 3.368567 3.455673 -1.721134
Zn 2.697016 5.183797 6.284614
O 2.697016 5.183797 3.519473
Zn 3.368567 3.455673 5.852947
O 3.368567 3.455673 3.087806
Zn 2.697016 5.183797 11.093554
O 2.697016 5.183797 8.328413
Zn 3.368567 3.455673 10.661887
O 3.368567 3.455673 7.896746
Zn 0.530833 8.063620 -0.209126
O 0.530833 8.063620 -2.974267
Zn 1.202384 6.335496 -0.640793
O 1.202384 6.335496 -3.405934
Zn 0.530833 8.063620 4.599814
O 0.530833 8.063620 1.834673
Zn 1.202384 6.335496 4.168147
O 1.202384 6.335496 1.403006
Zn 0.530833 8.063620 9.408754
O 0.530833 8.063620 6.643613
Zn 1.202384 6.335496 8.977087
O 1.202384 6.335496 6.211946
