108
A
Zn -1.505478 2.297395 3.722222
O -1.505478 2.297395 1.027024
Zn -0.741921 0.592279 1.347599
O -0.741921 0.592279 3.401647
Zn -1.505478 2.297395 8.471468
O -1.505478 2.297395 5.776270
Zn -0.741921 0.592279 6.096845
O -0.741921 0.592279 8.150893
Zn -1.505478 2.297395 13.220714
O -1.505478 2.297395 10.525516
Zn -0.741921 0.592279 10.846091
O -0.741921 0.592279 12.900139
Zn -3.752876 5.187069 3.722222
O -3.752876 5.187069 1.027024
Zn -2.989319 3.481953 1.347599
O -2.989319 3.481953 3.401647
Zn -3.752876 5.187069 8.471468
O -3.752876 5.187069 5.776270
Zn -2.989319 3.481953 6.096845
O -2.989319 3.481953 8.150893
Zn -3.752876 5.187069 13.220714
O -3.752876 5.187069 10.525516
Zn -2.989319 3.481953 10.846091
O -2.989319 3.481953 12.900139
Zn -6.000275 8.076744 3.722222
O -6.000275 8.076744 1.027024
Zn -5.236718 6.371628 1.347599
O -5.236718 6.371628 3.401647
Zn -6.000275 8.076744 8.471468
O -6.000275 8.076744 5.776270
Zn -5.236718 6.371628 6.096845
O -5.236718 6.371628 8.150893
Zn -6.000275 8.076744 13.220714
O -6.000275 8.076744 10.525516
Zn -5.236718 6.371628 10.846091
O -5.236718 6.371628 12.900139
Zn 1.619286 2.297395 3.722222
O 1.619286 2.297395 1.027024
Zn 2.382843 0.592279 1.347599
O 2.382843 0.592279 3.401647
Zn 1.619286 2.297395 8.471468
O 1.619286 2.297395 5.776270
Zn 2.382843 0.592279 6.096845
O 2.382843 0.592279 8.150893
Zn 1.619286 2.297395 13.220714
O 1.619286 2.297395 10.525516
Zn 2.382843 0.592279 10.846091
O 2.382843 0.592279 12.900139
Zn -0.628113 5.187069 3.722222
O -0.628113 5.187069 1.027024
Zn 0.135444 3.481953 1.347599
O 0.135444 3.481953 3.401647
Zn -0.628113 5.187069 8.471468
O -0.628113 5.187069 5.776270
Zn 0.135444 3.481953 6.096845
O 0.135444 3.481953 8.150893
Zn -0.628113 5.187069 13.220714
O -0.628113 5.187069 10.525516
Zn 0.135444 3.481953 10.846091
O 0.135444 3.481953 12.900139
Zn -2.875511 8.076744 3.722222
O -2.875511 8.076744 1.027024
Zn -2.111954 6.371628 1.347599
O -2.111954 6.371628 3.401647
Zn -2.875511 8.076744 8.471468
O -2.875511 8.076744 5.776270
Zn -2.111954 6.371628 6.096845
O -2.111954 6.371628 8.150893
Zn -2.875511 8.076744 13.220714
O -2.875511 8.076744 10.525516
Zn -2.111954 6.371628 10.846091
O -2.111954 6.371628 12.900139
Zn 4.744049 2.297395 3.722222
O 4.744049 2.297395 1.027024
Zn 5.507606 0.592279 1.347599
O 5.507606 0.592279 3.401647
Zn 4.744049 2.297395 8.471468
O 4.744049 2.297395 5.776270
Zn 5.507606 0.592279 6.096845
O 5.507606 0.592279 8.150893
Zn 4.744049 2.297395 13.220714
O 4.744049 2.297395 10.525516
Zn 5.507606 0.592279 10.846091
O 5.507606 0.592279 12.900139
Zn 2.496651 5.187069 3.722222
O 2.496651 5.187069 1.027024
Zn 3.260208 3.481953 1.347599
O 3.260208 3.481953 3.401647
Zn 2.496651 5.187069 8.471468
O 2.496651 5.187069 5.776270
Zn 3.260208 3.481953 6.096845
O 3.260208 3.481953 8.150893
Zn 2.496651 5.187069 13.220714
O 2.496651 5.187069 10.525516
Zn 3.260208 3.481953 10.846091
O 3.260208 3.481953 12.900139
Zn 0.249252 8.076744 3.722222
O 0.249252 8.076744 1.027024
Zn 1.012809 6.371628 1.347599
O 1.012809 6.371628 3.401647
Zn 0.249252 8.076744 8.471468
O 0.249252 8.076744 5.776270
Zn 1.012809 6.371628 6.096845
O 1.012809 6.371628 8.150893
Zn 0.249252 8.076744 13.220714
O 0.249252 8.076744 10.525516
Zn 1.012809 6.371628 10.846091
O 1.012809 6.371628 12.900139
