108
A
Zn -0.922163 2.338394 4.151546
O -0.922163 2.338394 0.985711
Zn -0.797338 0.487248 1.582917
O -0.797338 0.487248 3.554340
Zn -0.922163 2.338394 9.288803
O -0.922163 2.338394 6.122968
Zn -0.797338 0.487248 6.720174
O -0.797338 0.487248 8.691597
Zn -0.922163 2.338394 14.426060
O -0.922163 2.338394 11.260225
Zn -0.797338 0.487248 11.857431
O -0.797338 0.487248 13.828854
Zn -2.641664 5.164037 4.151546
O -2.641664 5.164037 0.985711
Zn -2.516839 3.312891 1.582917
O -2.516839 3.312891 3.554340
Zn -2.641664 5.164037 9.288803
O -2.641664 5.164037 6.122968
Zn -2.516839 3.312891 6.720174
O -2.516839 3.312891 8.691597
Zn -2.641664 5.164037 14.426060
O -2.641664 5.164037 11.260225
Zn -2.516839 3.312891 11.857431
O -2.516839 3.312891 13.828854
Zn -4.361165 7.989679 4.151546
O -4.361165 7.989679 0.985711
Zn -4.236340 6.138533 1.582917
O -4.236340 6.138533 3.554340
Zn -4.361165 7.989679 9.288803
O -4.361165 7.989679 6.122968
Zn -4.236340 6.138533 6.720174
O -4.236340 6.138533 8.691597
Zn -4.361165 7.989679 14.426060
O -4.361165 7.989679 11.260225
Zn -4.236340 6.138533 11.857431
O -4.236340 6.138533 13.828854
Zn 2.308355 2.338394 4.151546
O 2.308355 2.338394 0.985711
Zn 2.433181 0.487248 1.582917
O 2.433181 0.487248 3.554340
Zn 2.308355 2.338394 9.288803
O 2.308355 2.338394 6.122968
Zn 2.433181 0.487248 6.720174
O 2.433181 0.487248 8.691597
Zn 2.308355 2.338394 14.426060
O 2.308355 2.338394 11.260225
Zn 2.433181 0.487248 11.857431
O 2.433181 0.487248 13.828854
Zn 0.588854 5.164037 4.151546
O 0.588854 5.164037 0.985711
Zn 0.713680 3.312891 1.582917
O 0.713680 3.312891 3.554340
Zn 0.588854 5.164037 9.288803
O 0.588854 5.164037 6.122968
Zn 0.713680 3.312891 6.720174
O 0.713680 3.312891 8.691597
Zn 0.588854 5.164037 14.426060
O 0.588854 5.164037 11.260225
Zn 0.713680 3.312891 11.857431
O 0.713680 3.312891 13.828854
Zn -1.130646 7.989679 4.151546
O -1.130646 7.989679 0.985711
Zn -1.005821 6.138533 1.582917
O -1.005821 6.138533 3.554340
Zn -1.130646 7.989679 9.288803
O -1.130646 7.989679 6.122968
Zn -1.005821 6.138533 6.720174
O -1.005821 6.138533 8.691597
Zn -1.130646 7.989679 14.426060
O -1.130646 7.989679 11.260225
Zn -1.005821 6.138533 11.857431
O -1.005821 6.138533 13.828854
Zn 5.538874 2.338394 4.151546
O 5.538874 2.338394 0.985711
Zn 5.663699 0.487248 1.582917
O 5.663699 0.487248 3.554340
Zn 5.538874 2.338394 9.288803
O 5.538874 2.338394 6.122968
Zn 5.663699 0.487248 6.720174
O 5.663699 0.487248 8.691597
Zn 5.538874 2.338394 14.426060
O 5.538874 2.338394 11.260225
Zn 5.663699 0.487248 11.857431
O 5.663699 0.487248 13.828854
Zn 3.819373 5.164037 4.151546
O 3.819373 5.164037 0.985711
Zn 3.944198 3.312891 1.582917
O 3.944198 3.312891 3.554340
Zn 3.819373 5.164037 9.288803
O 3.819373 5.164037 6.122968
Zn 3.944198 3.312891 6.720174
O 3.944198 3.312891 8.691597
Zn 3.819373 5.164037 14.426060
O 3.819373 5.164037 11.260225
Zn 3.944198 3.312891 11.857431
O 3.944198 3.312891 13.828854
Zn 2.099872 7.989679 4.151546
O 2.099872 7.989679 0.985711
Zn 2.224697 6.138533 1.582917
O 2.224697 6.138533 3.554340
Zn 2.099872 7.989679 9.288803
O 2.099872 7.989679 6.122968
Zn 2.224697 6.138533 6.720174
O 2.224697 6.138533 8.691597
Zn 2.099872 7.989679 14.426060
O 2.099872 7.989679 11.260225
Zn 2.224697 6.138533 11.857431
O 2.224697 6.138533 13.828854
