108
A
Zn -1.703142 2.281661 3.572719
O -1.703142 2.281661 1.037241
Zn -0.733758 0.630999 1.267739
O -0.733758 0.630999 3.342221
Zn -1.703142 2.281661 8.182679
O -1.703142 2.281661 5.647201
Zn -0.733758 0.630999 5.877699
O -0.733758 0.630999 7.952181
Zn -1.703142 2.281661 12.792639
O -1.703142 2.281661 10.257161
Zn -0.733758 0.630999 10.487659
O -0.733758 0.630999 12.562141
Zn -4.140043 5.194321 3.572719
O -4.140043 5.194321 1.037241
Zn -3.170658 3.543659 1.267739
O -3.170658 3.543659 3.342221
Zn -4.140043 5.194321 8.182679
O -4.140043 5.194321 5.647201
Zn -3.170658 3.543659 5.877699
O -3.170658 3.543659 7.952181
Zn -4.140043 5.194321 12.792639
O -4.140043 5.194321 10.257161
Zn -3.170658 3.543659 10.487659
O -3.170658 3.543659 12.562141
Zn -6.576943 8.106982 3.572719
O -6.576943 8.106982 1.037241
Zn -5.607558 6.456319 1.267739
O -5.607558 6.456319 3.342221
Zn -6.576943 8.106982 8.182679
O -6.576943 8.106982 5.647201
Zn -5.607558 6.456319 5.877699
O -5.607558 6.456319 7.952181
Zn -6.576943 8.106982 12.792639
O -6.576943 8.106982 10.257161
Zn -5.607558 6.456319 10.487659
O -5.607558 6.456319 12.562141
Zn 1.383658 2.281661 3.572719
O 1.383658 2.281661 1.037241
Zn 2.353042 0.630999 1.267739
O 2.353042 0.630999 3.342221
Zn 1.383658 2.281661 8.182679
O 1.383658 2.281661 5.647201
Zn 2.353042 0.630999 5.877699
O 2.353042 0.630999 7.952181
Zn 1.383658 2.281661 12.792639
O 1.383658 2.281661 10.257161
Zn 2.353042 0.630999 10.487659
O 2.353042 0.630999 12.562141
Zn -1.053242 5.194321 3.572719
O -1.053242 5.194321 1.037241
Zn -0.083858 3.543659 1.267739
O -0.083858 3.543659 3.342221
Zn -1.053242 5.194321 8.182679
O -1.053242 5.194321 5.647201
Zn -0.083858 3.543659 5.877699
O -0.083858 3.543659 7.952181
Zn -1.053242 5.194321 12.792639
O -1.053242 5.194321 10.257161
Zn -0.083858 3.543659 10.487659
O -0.083858 3.543659 12.562141
Zn -3.490143 8.106982 3.572719
O -3.490143 8.106982 1.037241
Zn -2.520758 6.456319 1.267739
O -2.520758 6.456319 3.342221
Zn -3.490143 8.106982 8.182679
O -3.490143 8.106982 5.647201
Zn -2.520758 6.456319 5.877699
O -2.520758 6.456319 7.952181
Zn -3.490143 8.106982 12.792639
O -3.490143 8.106982 10.257161
Zn -2.520758 6.456319 10.487659
O -2.520758 6.456319 12.562141
Zn 4.470458 2.281661 3.572719
O 4.470458 2.281661 1.037241
Zn 5.439843 0.630999 1.267739
O 5.439843 0.630999 3.342221
Zn 4.470458 2.281661 8.182679
O 4.470458 2.281661 5.647201
Zn 5.439843 0.630999 5.877699
O 5.439843 0.630999 7.952181
Zn 4.470458 2.281661 12.792639
O 4.470458 2.281661 10.257161
Zn 5.439843 0.630999 10.487659
O 5.439843 0.630999 12.562141
Zn 2.033558 5.194321 3.572719
O 2.033558 5.194321 1.037241
Zn 3.002942 3.543659 1.267739
O 3.002942 3.543659 3.342221
Zn 2.033558 5.194321 8.182679
O 2.033558 5.194321 5.647201
Zn 3.002942 3.543659 5.877699
O 3.002942 3.543659 7.952181
Zn 2.033558 5.194321 12.792639
O 2.033558 5.194321 10.257161
Zn 3.002942 3.543659 10.487659
O 3.002942 3.543659 12.562141
Zn -0.403342 8.106982 3.572719
O -0.403342 8.106982 1.037241
Zn 0.566042 6.456319 1.267739
O 0.566042 6.456319 3.342221
Zn -0.403342 8.106982 8.182679
O -0.403342 8.106982 5.647201
Zn 0.566042 6.456319 5.877699
O 0.566042 6.456319 7.952181
Zn -0.403342 8.106982 12.792639
O -0.403342 8.106982 10.257161
Zn 0.566042 6.456319 10.487659
O 0.566042 6.456319 12.562141
