108
A
Zn -2.014423 2.254648 0.847062
O -2.014423 2.254648 -1.436604
Zn -0.733801 0.695775 2.321777
O -0.733801 0.695775 0.038111
Zn -2.014423 2.254648 5.228195
O -2.014423 2.254648 2.944529
Zn -0.733801 0.695775 6.702910
O -0.733801 0.695775 4.419244
Zn -2.014423 2.254648 9.609328
O -2.014423 2.254648 7.325662
Zn -0.733801 0.695775 11.084043
O -0.733801 0.695775 8.800377
Zn -4.762648 5.205070 -2.648898
O -4.762648 5.205070 -4.932564
Zn -3.482026 3.646197 -1.174183
O -3.482026 3.646197 -3.457849
Zn -4.762648 5.205070 1.732235
O -4.762648 5.205070 -0.551431
Zn -3.482026 3.646197 3.206950
O -3.482026 3.646197 0.923284
Zn -4.762648 5.205070 6.113368
O -4.762648 5.205070 3.829702
Zn -3.482026 3.646197 7.588083
O -3.482026 3.646197 5.304417
Zn -7.510872 8.155493 -6.144858
O -7.510872 8.155493 -8.428524
Zn -6.230250 6.596619 -4.670143
O -6.230250 6.596619 -6.953809
Zn -7.510872 8.155493 -1.763725
O -7.510872 8.155493 -4.047391
Zn -6.230250 6.596619 -0.289010
O -6.230250 6.596619 -2.572676
Zn -7.510872 8.155493 2.617408
O -7.510872 8.155493 0.333742
Zn -6.230250 6.596619 4.092123
O -6.230250 6.596619 1.808457
Zn 1.010009 2.254648 0.847062
O 1.010009 2.254648 -1.436604
Zn 2.290631 0.695775 2.321777
O 2.290631 0.695775 0.038111
Zn 1.010009 2.254648 5.228195
O 1.010009 2.254648 2.944529
Zn 2.290631 0.695775 6.702910
O 2.290631 0.695775 4.419244
Zn 1.010009 2.254648 9.609328
O 1.010009 2.254648 7.325662
Zn 2.290631 0.695775 11.084043
O 2.290631 0.695775 8.800377
Zn -1.738216 5.205070 -2.648898
O -1.738216 5.205070 -4.932564
Zn -0.457594 3.646197 -1.174183
O -0.457594 3.646197 -3.457849
Zn -1.738216 5.205070 1.732235
O -1.738216 5.205070 -0.551431
Zn -0.457594 3.646197 3.206950
O -0.457594 3.646197 0.923284
Zn -1.738216 5.205070 6.113368
O -1.738216 5.205070 3.829702
Zn -0.457594 3.646197 7.588083
O -0.457594 3.646197 5.304417
Zn -4.486440 8.155493 -6.144858
O -4.486440 8.155493 -8.428524
Zn -3.205818 6.596619 -4.670143
O -3.205818 6.596619 -6.953809
Zn -4.486440 8.155493 -1.763725
O -4.486440 8.155493 -4.047391
Zn -3.205818 6.596619 -0.289010
O -3.205818 6.596619 -2.572676
Zn -4.486440 8.155493 2.617408
O -4.486440 8.155493 0.333742
Zn -3.205818 6.596619 4.092123
O -3.205818 6.596619 1.808457
Zn 4.034441 2.254648 0.847062
O 4.034441 2.254648 -1.436604
Zn 5.315063 0.695775 2.321777
O 5.315063 0.695775 0.038111
Zn 4.034441 2.254648 5.228195
O 4.034441 2.254648 2.944529
Zn 5.315063 0.695775 6.702910
O 5.315063 0.695775 4.419244
Zn 4.034441 2.254648 9.609328
O 4.034441 2.254648 7.325662
Zn 5.315063 0.695775 11.084043
O 5.315063 0.695775 8.800377
Zn 1.286216 5.205070 -2.648898
O 1.286216 5.205070 -4.932564
Zn 2.566838 3.646197 -1.174183
O 2.566838 3.646197 -3.457849
Zn 1.286216 5.205070 1.732235
O 1.286216 5.205070 -0.551431
Zn 2.566838 3.646197 3.206950
O 2.566838 3.646197 0.923284
Zn 1.286216 5.205070 6.113368
O 1.286216 5.205070 3.829702
Zn 2.566838 3.646197 7.588083
O 2.566838 3.646197 5.304417
Zn -1.462008 8.155493 -6.144858
O -1.462008 8.155493 -8.428524
Zn -0.181386 6.596619 -4.670143
O -0.181386 6.596619 -6.953809
Zn -1.462008 8.155493 -1.763725
O -1.462008 8.155493 -4.047391
Zn -0.181386 6.596619 -0.289010
O -0.181386 6.596619 -2.572676
Zn -1.462008 8.155493 2.617408
O -1.462008 8.155493 0.333742
Zn -0.181386 6.596619 4.092123
O -0.181386 6.596619 1.808457
