108
A
Zn -1.689229 2.282803 2.108073
O -1.689229 2.282803 -0.438652
Zn -0.734135 0.628215 2.573481
O -0.734135 0.628215 0.026756
Zn -1.689229 2.282803 6.727982
O -1.689229 2.282803 4.181257
Zn -0.734135 0.628215 7.193390
O -0.734135 0.628215 4.646665
Zn -1.689229 2.282803 11.347891
O -1.689229 2.282803 8.801166
Zn -0.734135 0.628215 11.813299
O -0.734135 0.628215 9.266574
Zn -4.112593 5.193821 -0.377007
O -4.112593 5.193821 -2.923732
Zn -3.157500 3.539233 0.088401
O -3.157500 3.539233 -2.458324
Zn -4.112593 5.193821 4.242902
O -4.112593 5.193821 1.696177
Zn -3.157500 3.539233 4.708310
O -3.157500 3.539233 2.161585
Zn -4.112593 5.193821 8.862811
O -4.112593 5.193821 6.316086
Zn -3.157500 3.539233 9.328219
O -3.157500 3.539233 6.781494
Zn -6.535958 8.104840 -2.862087
O -6.535958 8.104840 -5.408812
Zn -5.580864 6.450252 -2.396679
O -5.580864 6.450252 -4.943404
Zn -6.535958 8.104840 1.757822
O -6.535958 8.104840 -0.788903
Zn -5.580864 6.450252 2.223230
O -5.580864 6.450252 -0.323495
Zn -6.535958 8.104840 6.377731
O -6.535958 8.104840 3.831006
Zn -5.580864 6.450252 6.843139
O -5.580864 6.450252 4.296414
Zn 1.400283 2.282803 2.108073
O 1.400283 2.282803 -0.438652
Zn 2.355376 0.628215 2.573481
O 2.355376 0.628215 0.026756
Zn 1.400283 2.282803 6.727982
O 1.400283 2.282803 4.181257
Zn 2.355376 0.628215 7.193390
O 2.355376 0.628215 4.646665
Zn 1.400283 2.282803 11.347891
O 1.400283 2.282803 8.801166
Zn 2.355376 0.628215 11.813299
O 2.355376 0.628215 9.266574
Zn -1.023081 5.193821 -0.377007
O -1.023081 5.193821 -2.923732
Zn -0.067988 3.539233 0.088401
O -0.067988 3.539233 -2.458324
Zn -1.023081 5.193821 4.242902
O -1.023081 5.193821 1.696177
Zn -0.067988 3.539233 4.708310
O -0.067988 3.539233 2.161585
Zn -1.023081 5.193821 8.862811
O -1.023081 5.193821 6.316086
Zn -0.067988 3.539233 9.328219
O -0.067988 3.539233 6.781494
Zn -3.446446 8.104840 -2.862087
O -3.446446 8.104840 -5.408812
Zn -2.491352 6.450252 -2.396679
O -2.491352 6.450252 -4.943404
Zn -3.446446 8.104840 1.757822
O -3.446446 8.104840 -0.788903
Zn -2.491352 6.450252 2.223230
O -2.491352 6.450252 -0.323495
Zn -3.446446 8.104840 6.377731
O -3.446446 8.104840 3.831006
Zn -2.491352 6.450252 6.843139
O -2.491352 6.450252 4.296414
Zn 4.489795 2.282803 2.108073
O 4.489795 2.282803 -0.438652
Zn 5.444888 0.628215 2.573481
O 5.444888 0.628215 0.026756
Zn 4.489795 2.282803 6.727982
O 4.489795 2.282803 4.181257
Zn 5.444888 0.628215 7.193390
O 5.444888 0.628215 4.646665
Zn 4.489795 2.282803 11.347891
O 4.489795 2.282803 8.801166
Zn 5.444888 0.628215 11.813299
O 5.444888 0.628215 9.266574
Zn 2.066430 5.193821 -0.377007
O 2.066430 5.193821 -2.923732
Zn 3.021524 3.539233 0.088401
O 3.021524 3.539233 -2.458324
Zn 2.066430 5.193821 4.242902
O 2.066430 5.193821 1.696177
Zn 3.021524 3.539233 4.708310
O 3.021524 3.539233 2.161585
Zn 2.066430 5.193821 8.862811
O 2.066430 5.193821 6.316086
Zn 3.021524 3.539233 9.328219
O 3.021524 3.539233 6.781494
Zn -0.356934 8.104840 -2.862087
O -0.356934 8.104840 -5.408812
Zn 0.598160 6.450252 -2.396679
O 0.598160 6.450252 -4.943404
Zn -0.356934 8.104840 1.757822
O -0.356934 8.104840 -0.788903
Zn 0.598160 6.450252 2.223230
O 0.598160 6.450252 -0.323495
Zn -0.356934 8.104840 6.377731
O -0.356934 8.104840 3.831006
Zn 0.598160 6.450252 6.843139
O 0.598160 6.450252 4.296414
