108
A
Zn -0.875301 2.341376 4.185354
O -0.875301 2.341376 0.981750
Zn -0.803593 0.479341 1.601802
O -0.803593 0.479341 3.565302
Zn -0.875301 2.341376 9.352458
O -0.875301 2.341376 6.148854
Zn -0.803593 0.479341 6.768906
O -0.803593 0.479341 8.732406
Zn -0.875301 2.341376 14.519562
O -0.875301 2.341376 11.315958
Zn -0.803593 0.479341 11.936010
O -0.803593 0.479341 13.899510
Zn -2.554194 5.162092 4.185354
O -2.554194 5.162092 0.981750
Zn -2.482486 3.300058 1.601802
O -2.482486 3.300058 3.565302
Zn -2.554194 5.162092 9.352458
O -2.554194 5.162092 6.148854
Zn -2.482486 3.300058 6.768906
O -2.482486 3.300058 8.732406
Zn -2.554194 5.162092 14.519562
O -2.554194 5.162092 11.315958
Zn -2.482486 3.300058 11.936010
O -2.482486 3.300058 13.899510
Zn -4.233087 7.982809 4.185354
O -4.233087 7.982809 0.981750
Zn -4.161379 6.120775 1.601802
O -4.161379 6.120775 3.565302
Zn -4.233087 7.982809 9.352458
O -4.233087 7.982809 6.148854
Zn -4.161379 6.120775 6.768906
O -4.161379 6.120775 8.732406
Zn -4.233087 7.982809 14.519562
O -4.233087 7.982809 11.315958
Zn -4.161379 6.120775 11.936010
O -4.161379 6.120775 13.899510
Zn 2.363353 2.341376 4.185354
O 2.363353 2.341376 0.981750
Zn 2.435061 0.479341 1.601802
O 2.435061 0.479341 3.565302
Zn 2.363353 2.341376 9.352458
O 2.363353 2.341376 6.148854
Zn 2.435061 0.479341 6.768906
O 2.435061 0.479341 8.732406
Zn 2.363353 2.341376 14.519562
O 2.363353 2.341376 11.315958
Zn 2.435061 0.479341 11.936010
O 2.435061 0.479341 13.899510
Zn 0.684459 5.162092 4.185354
O 0.684459 5.162092 0.981750
Zn 0.756167 3.300058 1.601802
O 0.756167 3.300058 3.565302
Zn 0.684459 5.162092 9.352458
O 0.684459 5.162092 6.148854
Zn 0.756167 3.300058 6.768906
O 0.756167 3.300058 8.732406
Zn 0.684459 5.162092 14.519562
O 0.684459 5.162092 11.315958
Zn 0.756167 3.300058 11.936010
O 0.756167 3.300058 13.899510
Zn -0.994434 7.982809 4.185354
O -0.994434 7.982809 0.981750
Zn -0.922726 6.120775 1.601802
O -0.922726 6.120775 3.565302
Zn -0.994434 7.982809 9.352458
O -0.994434 7.982809 6.148854
Zn -0.922726 6.120775 6.768906
O -0.922726 6.120775 8.732406
Zn -0.994434 7.982809 14.519562
O -0.994434 7.982809 11.315958
Zn -0.922726 6.120775 11.936010
O -0.922726 6.120775 13.899510
Zn 5.602006 2.341376 4.185354
O 5.602006 2.341376 0.981750
Zn 5.673714 0.479341 1.601802
O 5.673714 0.479341 3.565302
Zn 5.602006 2.341376 9.352458
O 5.602006 2.341376 6.148854
Zn 5.673714 0.479341 6.768906
O 5.673714 0.479341 8.732406
Zn 5.602006 2.341376 14.519562
O 5.602006 2.341376 11.315958
Zn 5.673714 0.479341 11.936010
O 5.673714 0.479341 13.899510
Zn 3.923113 5.162092 4.185354
O 3.923113 5.162092 0.981750
Zn 3.994821 3.300058 1.601802
O 3.994821 3.300058 3.565302
Zn 3.923113 5.162092 9.352458
O 3.923113 5.162092 6.148854
Zn 3.994821 3.300058 6.768906
O 3.994821 3.300058 8.732406
Zn 3.923113 5.162092 14.519562
O 3.923113 5.162092 11.315958
Zn 3.994821 3.300058 11.936010
O 3.994821 3.300058 13.899510
Zn 2.244219 7.982809 4.185354
O 2.244219 7.982809 0.981750
Zn 2.315927 6.120775 1.601802
O 2.315927 6.120775 3.565302
Zn 2.244219 7.982809 9.352458
O 2.244219 7.982809 6.148854
Zn 2.315927 6.120775 6.768906
O 2.315927 6.120775 8.732406
Zn 2.244219 7.982809 14.519562
O 2.244219 7.982809 11.315958
Zn 2.315927 6.120775 11.936010
O 2.315927 6.120775 13.899510
