108
A
Zn -2.208421 2.236250 3.179213
O -2.208421 2.236250 1.052685
Zn -0.742841 0.738800 1.063264
O -0.742841 0.738800 3.168634
Zn -2.208421 2.236250 7.411111
O -2.208421 2.236250 5.284583
Zn -0.742841 0.738800 5.295162
O -0.742841 0.738800 7.400532
Zn -2.208421 2.236250 11.643009
O -2.208421 2.236250 9.516481
Zn -0.742841 0.738800 9.527060
O -0.742841 0.738800 11.632430
Zn -5.159684 5.211300 3.179213
O -5.159684 5.211300 1.052685
Zn -3.694103 3.713850 1.063264
O -3.694103 3.713850 3.168634
Zn -5.159684 5.211300 7.411111
O -5.159684 5.211300 5.284583
Zn -3.694103 3.713850 5.295162
O -3.694103 3.713850 7.400532
Zn -5.159684 5.211300 11.643009
O -5.159684 5.211300 9.516481
Zn -3.694103 3.713850 9.527060
O -3.694103 3.713850 11.632430
Zn -8.110946 8.186350 3.179213
O -8.110946 8.186350 1.052685
Zn -6.645365 6.688900 1.063264
O -6.645365 6.688900 3.168634
Zn -8.110946 8.186350 7.411111
O -8.110946 8.186350 5.284583
Zn -6.645365 6.688900 5.295162
O -6.645365 6.688900 7.400532
Zn -8.110946 8.186350 11.643009
O -8.110946 8.186350 9.516481
Zn -6.645365 6.688900 9.527060
O -6.645365 6.688900 11.632430
Zn 0.775336 2.236250 3.179213
O 0.775336 2.236250 1.052685
Zn 2.240916 0.738800 1.063264
O 2.240916 0.738800 3.168634
Zn 0.775336 2.236250 7.411111
O 0.775336 2.236250 5.284583
Zn 2.240916 0.738800 5.295162
O 2.240916 0.738800 7.400532
Zn 0.775336 2.236250 11.643009
O 0.775336 2.236250 9.516481
Zn 2.240916 0.738800 9.527060
O 2.240916 0.738800 11.632430
Zn -2.175926 5.211300 3.179213
O -2.175926 5.211300 1.052685
Zn -0.710346 3.713850 1.063264
O -0.710346 3.713850 3.168634
Zn -2.175926 5.211300 7.411111
O -2.175926 5.211300 5.284583
Zn -0.710346 3.713850 5.295162
O -0.710346 3.713850 7.400532
Zn -2.175926 5.211300 11.643009
O -2.175926 5.211300 9.516481
Zn -0.710346 3.713850 9.527060
O -0.710346 3.713850 11.632430
Zn -5.127189 8.186350 3.179213
O -5.127189 8.186350 1.052685
Zn -3.661608 6.688900 1.063264
O -3.661608 6.688900 3.168634
Zn -5.127189 8.186350 7.411111
O -5.127189 8.186350 5.284583
Zn -3.661608 6.688900 5.295162
O -3.661608 6.688900 7.400532
Zn -5.127189 8.186350 11.643009
O -5.127189 8.186350 9.516481
Zn -3.661608 6.688900 9.527060
O -3.661608 6.688900 11.632430
Zn 3.759093 2.236250 3.179213
O 3.759093 2.236250 1.052685
Zn 5.224674 0.738800 1.063264
O 5.224674 0.738800 3.168634
Zn 3.759093 2.236250 7.411111
O 3.759093 2.236250 5.284583
Zn 5.224674 0.738800 5.295162
O 5.224674 0.738800 7.400532
Zn 3.759093 2.236250 11.643009
O 3.759093 2.236250 9.516481
Zn 5.224674 0.738800 9.527060
O 5.224674 0.738800 11.632430
Zn 0.807831 5.211300 3.179213
O 0.807831 5.211300 1.052685
Zn 2.273411 3.713850 1.063264
O 2.273411 3.713850 3.168634
Zn 0.807831 5.211300 7.411111
O 0.807831 5.211300 5.284583
Zn 2.273411 3.713850 5.295162
O 2.273411 3.713850 7.400532
Zn 0.807831 5.211300 11.643009
O 0.807831 5.211300 9.516481
Zn 2.273411 3.713850 9.527060
O 2.273411 3.713850 11.632430
Zn -2.143431 8.186350 3.179213
O -2.143431 8.186350 1.052685
Zn -0.677851 6.688900 1.063264
O -0.677851 6.688900 3.168634
Zn -2.143431 8.186350 7.411111
O -2.143431 8.186350 5.284583
Zn -0.677851 6.688900 5.295162
O -0.677851 6.688900 7.400532
Zn -2.143431 8.186350 11.643009
O -2.143431 8.186350 9.516481
Zn -0.677851 6.688900 9.527060
O -0.677851 6.688900 11.632430
