108
A
Zn -0.968741 2.335388 4.117849
O -0.968741 2.335388 0.989561
Zn -0.791368 0.495180 1.564144
O -0.791368 0.495180 3.543266
Zn -0.968741 2.335388 9.225259
O -0.968741 2.335388 6.096971
Zn -0.791368 0.495180 6.671554
O -0.791368 0.495180 8.650676
Zn -0.968741 2.335388 14.332669
O -0.968741 2.335388 11.204381
Zn -0.791368 0.495180 11.778964
O -0.791368 0.495180 13.758086
Zn -2.728849 5.165956 4.117849
O -2.728849 5.165956 0.989561
Zn -2.551476 3.325748 1.564144
O -2.551476 3.325748 3.543266
Zn -2.728849 5.165956 9.225259
O -2.728849 5.165956 6.096971
Zn -2.551476 3.325748 6.671554
O -2.551476 3.325748 8.650676
Zn -2.728849 5.165956 14.332669
O -2.728849 5.165956 11.204381
Zn -2.551476 3.325748 11.778964
O -2.551476 3.325748 13.758086
Zn -4.488958 7.996524 4.117849
O -4.488958 7.996524 0.989561
Zn -4.311584 6.156316 1.564144
O -4.311584 6.156316 3.543266
Zn -4.488958 7.996524 9.225259
O -4.488958 7.996524 6.096971
Zn -4.311584 6.156316 6.671554
O -4.311584 6.156316 8.650676
Zn -4.488958 7.996524 14.332669
O -4.488958 7.996524 11.204381
Zn -4.311584 6.156316 11.778964
O -4.311584 6.156316 13.758086
Zn 2.253643 2.335388 4.117849
O 2.253643 2.335388 0.989561
Zn 2.431016 0.495180 1.564144
O 2.431016 0.495180 3.543266
Zn 2.253643 2.335388 9.225259
O 2.253643 2.335388 6.096971
Zn 2.431016 0.495180 6.671554
O 2.431016 0.495180 8.650676
Zn 2.253643 2.335388 14.332669
O 2.253643 2.335388 11.204381
Zn 2.431016 0.495180 11.778964
O 2.431016 0.495180 13.758086
Zn 0.493534 5.165956 4.117849
O 0.493534 5.165956 0.989561
Zn 0.670907 3.325748 1.564144
O 0.670907 3.325748 3.543266
Zn 0.493534 5.165956 9.225259
O 0.493534 5.165956 6.096971
Zn 0.670907 3.325748 6.671554
O 0.670907 3.325748 8.650676
Zn 0.493534 5.165956 14.332669
O 0.493534 5.165956 11.204381
Zn 0.670907 3.325748 11.778964
O 0.670907 3.325748 13.758086
Zn -1.266574 7.996524 4.117849
O -1.266574 7.996524 0.989561
Zn -1.089201 6.156316 1.564144
O -1.089201 6.156316 3.543266
Zn -1.266574 7.996524 9.225259
O -1.266574 7.996524 6.096971
Zn -1.089201 6.156316 6.671554
O -1.089201 6.156316 8.650676
Zn -1.266574 7.996524 14.332669
O -1.266574 7.996524 11.204381
Zn -1.089201 6.156316 11.778964
O -1.089201 6.156316 13.758086
Zn 5.476026 2.335388 4.117849
O 5.476026 2.335388 0.989561
Zn 5.653399 0.495180 1.564144
O 5.653399 0.495180 3.543266
Zn 5.476026 2.335388 9.225259
O 5.476026 2.335388 6.096971
Zn 5.653399 0.495180 6.671554
O 5.653399 0.495180 8.650676
Zn 5.476026 2.335388 14.332669
O 5.476026 2.335388 11.204381
Zn 5.653399 0.495180 11.778964
O 5.653399 0.495180 13.758086
Zn 3.715918 5.165956 4.117849
O 3.715918 5.165956 0.989561
Zn 3.893291 3.325748 1.564144
O 3.893291 3.325748 3.543266
Zn 3.715918 5.165956 9.225259
O 3.715918 5.165956 6.096971
Zn 3.893291 3.325748 6.671554
O 3.893291 3.325748 8.650676
Zn 3.715918 5.165956 14.332669
O 3.715918 5.165956 11.204381
Zn 3.893291 3.325748 11.778964
O 3.893291 3.325748 13.758086
Zn 1.955809 7.996524 4.117849
O 1.955809 7.996524 0.989561
Zn 2.133182 6.156316 1.564144
O 2.133182 6.156316 3.543266
Zn 1.955809 7.996524 9.225259
O 1.955809 7.996524 6.096971
Zn 2.133182 6.156316 6.671554
O 2.133182 6.156316 8.650676
Zn 1.955809 7.996524 14.332669
O 1.955809 7.996524 11.204381
Zn 2.133182 6.156316 11.778964
O 2.133182 6.156316 13.758086
