108
A
Zn -1.661307 2.285078 3.604550
O -1.661307 2.285078 1.035257
Zn -0.734985 0.622656 1.284647
O -0.734985 0.622656 3.355160
Zn -1.661307 2.285078 8.244357
O -1.661307 2.285078 5.675064
Zn -0.734985 0.622656 5.924454
O -0.734985 0.622656 7.994967
Zn -1.661307 2.285078 12.884164
O -1.661307 2.285078 10.314871
Zn -0.734985 0.622656 10.564261
O -0.734985 0.622656 12.634774
Zn -4.057600 5.192813 3.604550
O -4.057600 5.192813 1.035257
Zn -3.131278 3.530391 1.284647
O -3.131278 3.530391 3.355160
Zn -4.057600 5.192813 8.244357
O -4.057600 5.192813 5.675064
Zn -3.131278 3.530391 5.924454
O -3.131278 3.530391 7.994967
Zn -4.057600 5.192813 12.884164
O -4.057600 5.192813 10.314871
Zn -3.131278 3.530391 10.564261
O -3.131278 3.530391 12.634774
Zn -6.453893 8.100547 3.604550
O -6.453893 8.100547 1.035257
Zn -5.527571 6.438126 1.284647
O -5.527571 6.438126 3.355160
Zn -6.453893 8.100547 8.244357
O -6.453893 8.100547 5.675064
Zn -5.527571 6.438126 5.924454
O -5.527571 6.438126 7.994967
Zn -6.453893 8.100547 12.884164
O -6.453893 8.100547 10.314871
Zn -5.527571 6.438126 10.564261
O -5.527571 6.438126 12.634774
Zn 1.433628 2.285078 3.604550
O 1.433628 2.285078 1.035257
Zn 2.359950 0.622656 1.284647
O 2.359950 0.622656 3.355160
Zn 1.433628 2.285078 8.244357
O 1.433628 2.285078 5.675064
Zn 2.359950 0.622656 5.924454
O 2.359950 0.622656 7.994967
Zn 1.433628 2.285078 12.884164
O 1.433628 2.285078 10.314871
Zn 2.359950 0.622656 10.564261
O 2.359950 0.622656 12.634774
Zn -0.962665 5.192813 3.604550
O -0.962665 5.192813 1.035257
Zn -0.036343 3.530391 1.284647
O -0.036343 3.530391 3.355160
Zn -0.962665 5.192813 8.244357
O -0.962665 5.192813 5.675064
Zn -0.036343 3.530391 5.924454
O -0.036343 3.530391 7.994967
Zn -0.962665 5.192813 12.884164
O -0.962665 5.192813 10.314871
Zn -0.036343 3.530391 10.564261
O -0.036343 3.530391 12.634774
Zn -3.358958 8.100547 3.604550
O -3.358958 8.100547 1.035257
Zn -2.432636 6.438126 1.284647
O -2.432636 6.438126 3.355160
Zn -3.358958 8.100547 8.244357
O -3.358958 8.100547 5.675064
Zn -2.432636 6.438126 5.924454
O -2.432636 6.438126 7.994967
Zn -3.358958 8.100547 12.884164
O -3.358958 8.100547 10.314871
Zn -2.432636 6.438126 10.564261
O -2.432636 6.438126 12.634774
Zn 4.528563 2.285078 3.604550
O 4.528563 2.285078 1.035257
Zn 5.454885 0.622656 1.284647
O 5.454885 0.622656 3.355160
Zn 4.528563 2.285078 8.244357
O 4.528563 2.285078 5.675064
Zn 5.454885 0.622656 5.924454
O 5.454885 0.622656 7.994967
Zn 4.528563 2.285078 12.884164
O 4.528563 2.285078 10.314871
Zn 5.454885 0.622656 10.564261
O 5.454885 0.622656 12.634774
Zn 2.132270 5.192813 3.604550
O 2.132270 5.192813 1.035257
Zn 3.058592 3.530391 1.284647
O 3.058592 3.530391 3.355160
Zn 2.132270 5.192813 8.244357
O 2.132270 5.192813 5.675064
Zn 3.058592 3.530391 5.924454
O 3.058592 3.530391 7.994967
Zn 2.132270 5.192813 12.884164
O 2.132270 5.192813 10.314871
Zn 3.058592 3.530391 10.564261
O 3.058592 3.530391 12.634774
Zn -0.264022 8.100547 3.604550
O -0.264022 8.100547 1.035257
Zn 0.662300 6.438126 1.284647
O 0.662300 6.438126 3.355160
Zn -0.264022 8.100547 8.244357
O -0.264022 8.100547 5.675064
Zn 0.662300 6.438126 5.924454
O 0.662300 6.438126 7.994967
Zn -0.264022 8.100547 12.884164
O -0.264022 8.100547 10.314871
Zn 0.662300 6.438126 10.564261
O 0.662300 6.438126 12.634774
