108
A
Zn -1.121945 2.325191 4.006336
O -1.121945 2.325191 1.001584
Zn -0.773522 0.521796 1.502376
O -0.773522 0.521796 3.505544
Zn -1.121945 2.325191 9.014256
O -1.121945 2.325191 6.009504
Zn -0.773522 0.521796 6.510296
O -0.773522 0.521796 8.513464
Zn -1.121945 2.325191 14.022176
O -1.121945 2.325191 11.017424
Zn -0.773522 0.521796 11.518216
O -0.773522 0.521796 13.521384
Zn -3.017412 5.172177 4.006336
O -3.017412 5.172177 1.001584
Zn -2.668989 3.368782 1.502376
O -2.668989 3.368782 3.505544
Zn -3.017412 5.172177 9.014256
O -3.017412 5.172177 6.009504
Zn -2.668989 3.368782 6.510296
O -2.668989 3.368782 8.513464
Zn -3.017412 5.172177 14.022176
O -3.017412 5.172177 11.017424
Zn -2.668989 3.368782 11.518216
O -2.668989 3.368782 13.521384
Zn -4.912878 8.019164 4.006336
O -4.912878 8.019164 1.001584
Zn -4.564455 6.215768 1.502376
O -4.564455 6.215768 3.505544
Zn -4.912878 8.019164 9.014256
O -4.912878 8.019164 6.009504
Zn -4.564455 6.215768 6.510296
O -4.564455 6.215768 8.513464
Zn -4.912878 8.019164 14.022176
O -4.912878 8.019164 11.017424
Zn -4.564455 6.215768 11.518216
O -4.564455 6.215768 13.521384
Zn 2.073322 2.325191 4.006336
O 2.073322 2.325191 1.001584
Zn 2.421745 0.521796 1.502376
O 2.421745 0.521796 3.505544
Zn 2.073322 2.325191 9.014256
O 2.073322 2.325191 6.009504
Zn 2.421745 0.521796 6.510296
O 2.421745 0.521796 8.513464
Zn 2.073322 2.325191 14.022176
O 2.073322 2.325191 11.017424
Zn 2.421745 0.521796 11.518216
O 2.421745 0.521796 13.521384
Zn 0.177855 5.172177 4.006336
O 0.177855 5.172177 1.001584
Zn 0.526278 3.368782 1.502376
O 0.526278 3.368782 3.505544
Zn 0.177855 5.172177 9.014256
O 0.177855 5.172177 6.009504
Zn 0.526278 3.368782 6.510296
O 0.526278 3.368782 8.513464
Zn 0.177855 5.172177 14.022176
O 0.177855 5.172177 11.017424
Zn 0.526278 3.368782 11.518216
O 0.526278 3.368782 13.521384
Zn -1.717612 8.019164 4.006336
O -1.717612 8.019164 1.001584
Zn -1.369189 6.215768 1.502376
O -1.369189 6.215768 3.505544
Zn -1.717612 8.019164 9.014256
O -1.717612 8.019164 6.009504
Zn -1.369189 6.215768 6.510296
O -1.369189 6.215768 8.513464
Zn -1.717612 8.019164 14.022176
O -1.717612 8.019164 11.017424
Zn -1.369189 6.215768 11.518216
O -1.369189 6.215768 13.521384
Zn 5.268589 2.325191 4.006336
O 5.268589 2.325191 1.001584
Zn 5.617012 0.521796 1.502376
O 5.617012 0.521796 3.505544
Zn 5.268589 2.325191 9.014256
O 5.268589 2.325191 6.009504
Zn 5.617012 0.521796 6.510296
O 5.617012 0.521796 8.513464
Zn 5.268589 2.325191 14.022176
O 5.268589 2.325191 11.017424
Zn 5.617012 0.521796 11.518216
O 5.617012 0.521796 13.521384
Zn 3.373122 5.172177 4.006336
O 3.373122 5.172177 1.001584
Zn 3.721545 3.368782 1.502376
O 3.721545 3.368782 3.505544
Zn 3.373122 5.172177 9.014256
O 3.373122 5.172177 6.009504
Zn 3.721545 3.368782 6.510296
O 3.721545 3.368782 8.513464
Zn 3.373122 5.172177 14.022176
O 3.373122 5.172177 11.017424
Zn 3.721545 3.368782 11.518216
O 3.721545 3.368782 13.521384
Zn 1.477655 8.019164 4.006336
O 1.477655 8.019164 1.001584
Zn 1.826078 6.215768 1.502376
O 1.826078 6.215768 3.505544
Zn 1.477655 8.019164 9.014256
O 1.477655 8.019164 6.009504
Zn 1.826078 6.215768 6.510296
O 1.826078 6.215768 8.513464
Zn 1.477655 8.019164 14.022176
O 1.477655 8.019164 11.017424
Zn 1.826078 6.215768 11.518216
O 1.826078 6.215768 13.521384
