108
A
Zn -1.934832 2.261835 1.155163
O -1.934832 2.261835 -1.192924
Zn -0.732177 0.678737 2.390511
O -0.732177 0.678737 0.042424
Zn -1.934832 2.261835 5.595990
O -1.934832 2.261835 3.247903
Zn -0.732177 0.678737 6.831338
O -0.732177 0.678737 4.483251
Zn -1.934832 2.261835 10.036817
O -1.934832 2.261835 7.688730
Zn -0.732177 0.678737 11.272165
O -0.732177 0.678737 8.924078
Zn -4.601842 5.202406 -2.088077
O -4.601842 5.202406 -4.436164
Zn -3.399187 3.619308 -0.852729
O -3.399187 3.619308 -3.200816
Zn -4.601842 5.202406 2.352750
O -4.601842 5.202406 0.004663
Zn -3.399187 3.619308 3.588098
O -3.399187 3.619308 1.240011
Zn -4.601842 5.202406 6.793577
O -4.601842 5.202406 4.445490
Zn -3.399187 3.619308 8.028925
O -3.399187 3.619308 5.680838
Zn -7.268851 8.142977 -5.331317
O -7.268851 8.142977 -7.679404
Zn -6.066196 6.559880 -4.095969
O -6.066196 6.559880 -6.444056
Zn -7.268851 8.142977 -0.890490
O -7.268851 8.142977 -3.238577
Zn -6.066196 6.559880 0.344858
O -6.066196 6.559880 -2.003229
Zn -7.268851 8.142977 3.550337
O -7.268851 8.142977 1.202250
Zn -6.066196 6.559880 4.785685
O -6.066196 6.559880 2.437598
Zn 1.105870 2.261835 1.155163
O 1.105870 2.261835 -1.192924
Zn 2.308525 0.678737 2.390511
O 2.308525 0.678737 0.042424
Zn 1.105870 2.261835 5.595990
O 1.105870 2.261835 3.247903
Zn 2.308525 0.678737 6.831338
O 2.308525 0.678737 4.483251
Zn 1.105870 2.261835 10.036817
O 1.105870 2.261835 7.688730
Zn 2.308525 0.678737 11.272165
O 2.308525 0.678737 8.924078
Zn -1.561140 5.202406 -2.088077
O -1.561140 5.202406 -4.436164
Zn -0.358485 3.619308 -0.852729
O -0.358485 3.619308 -3.200816
Zn -1.561140 5.202406 2.352750
O -1.561140 5.202406 0.004663
Zn -0.358485 3.619308 3.588098
O -0.358485 3.619308 1.240011
Zn -1.561140 5.202406 6.793577
O -1.561140 5.202406 4.445490
Zn -0.358485 3.619308 8.028925
O -0.358485 3.619308 5.680838
Zn -4.228149 8.142977 -5.331317
O -4.228149 8.142977 -7.679404
Zn -3.025494 6.559880 -4.095969
O -3.025494 6.559880 -6.444056
Zn -4.228149 8.142977 -0.890490
O -4.228149 8.142977 -3.238577
Zn -3.025494 6.559880 0.344858
O -3.025494 6.559880 -2.003229
Zn -4.228149 8.142977 3.550337
O -4.228149 8.142977 1.202250
Zn -3.025494 6.559880 4.785685
O -3.025494 6.559880 2.437598
Zn 4.146572 2.261835 1.155163
O 4.146572 2.261835 -1.192924
Zn 5.349227 0.678737 2.390511
O 5.349227 0.678737 0.042424
Zn 4.146572 2.261835 5.595990
O 4.146572 2.261835 3.247903
Zn 5.349227 0.678737 6.831338
O 5.349227 0.678737 4.483251
Zn 4.146572 2.261835 10.036817
O 4.146572 2.261835 7.688730
Zn 5.349227 0.678737 11.272165
O 5.349227 0.678737 8.924078
Zn 1.479562 5.202406 -2.088077
O 1.479562 5.202406 -4.436164
Zn 2.682217 3.619308 -0.852729
O 2.682217 3.619308 -3.200816
Zn 1.479562 5.202406 2.352750
O 1.479562 5.202406 0.004663
Zn 2.682217 3.619308 3.588098
O 2.682217 3.619308 1.240011
Zn 1.479562 5.202406 6.793577
O 1.479562 5.202406 4.445490
Zn 2.682217 3.619308 8.028925
O 2.682217 3.619308 5.680838
Zn -1.187447 8.142977 -5.331317
O -1.187447 8.142977 -7.679404
Zn 0.015208 6.559880 -4.095969
O 0.015208 6.559880 -6.444056
Zn -1.187447 8.142977 -0.890490
O -1.187447 8.142977 -3.238577
Zn 0.015208 6.559880 0.344858
O 0.015208 6.559880 -2.003229
Zn -1.187447 8.142977 3.550337
O -1.187447 8.142977 1.202250
Zn 0.015208 6.559880 4.785685
O 0.015208 6.559880 2.437598
