108
A
Zn -1.590950 2.290718 2.490237
O -1.590950 2.290718 -0.135912
Zn -0.737664 0.608808 2.635224
O -0.737664 0.608808 0.009075
Zn -1.590950 2.290718 7.179789
O -1.590950 2.290718 4.553640
Zn -0.737664 0.608808 7.324776
O -0.737664 0.608808 4.698627
Zn -1.590950 2.290718 11.869341
O -1.590950 2.290718 9.243192
Zn -0.737664 0.608808 12.014328
O -0.737664 0.608808 9.388179
Zn -3.919564 5.190243 0.299997
O -3.919564 5.190243 -2.326152
Zn -3.066277 3.508333 0.444984
O -3.066277 3.508333 -2.181165
Zn -3.919564 5.190243 4.989549
O -3.919564 5.190243 2.363400
Zn -3.066277 3.508333 5.134536
O -3.066277 3.508333 2.508387
Zn -3.919564 5.190243 9.679101
O -3.919564 5.190243 7.052952
Zn -3.066277 3.508333 9.824088
O -3.066277 3.508333 7.197939
Zn -6.248177 8.089768 -1.890243
O -6.248177 8.089768 -4.516392
Zn -5.394891 6.407858 -1.745256
O -5.394891 6.407858 -4.371405
Zn -6.248177 8.089768 2.799309
O -6.248177 8.089768 0.173160
Zn -5.394891 6.407858 2.944296
O -5.394891 6.407858 0.318147
Zn -6.248177 8.089768 7.488861
O -6.248177 8.089768 4.862712
Zn -5.394891 6.407858 7.633848
O -5.394891 6.407858 5.007699
Zn 1.517544 2.290718 2.490237
O 1.517544 2.290718 -0.135912
Zn 2.370830 0.608808 2.635224
O 2.370830 0.608808 0.009075
Zn 1.517544 2.290718 7.179789
O 1.517544 2.290718 4.553640
Zn 2.370830 0.608808 7.324776
O 2.370830 0.608808 4.698627
Zn 1.517544 2.290718 11.869341
O 1.517544 2.290718 9.243192
Zn 2.370830 0.608808 12.014328
O 2.370830 0.608808 9.388179
Zn -0.811070 5.190243 0.299997
O -0.811070 5.190243 -2.326152
Zn 0.042216 3.508333 0.444984
O 0.042216 3.508333 -2.181165
Zn -0.811070 5.190243 4.989549
O -0.811070 5.190243 2.363400
Zn 0.042216 3.508333 5.134536
O 0.042216 3.508333 2.508387
Zn -0.811070 5.190243 9.679101
O -0.811070 5.190243 7.052952
Zn 0.042216 3.508333 9.824088
O 0.042216 3.508333 7.197939
Zn -3.139684 8.089768 -1.890243
O -3.139684 8.089768 -4.516392
Zn -2.286397 6.407858 -1.745256
O -2.286397 6.407858 -4.371405
Zn -3.139684 8.089768 2.799309
O -3.139684 8.089768 0.173160
Zn -2.286397 6.407858 2.944296
O -2.286397 6.407858 0.318147
Zn -3.139684 8.089768 7.488861
O -3.139684 8.089768 4.862712
Zn -2.286397 6.407858 7.633848
O -2.286397 6.407858 5.007699
Zn 4.626037 2.290718 2.490237
O 4.626037 2.290718 -0.135912
Zn 5.479324 0.608808 2.635224
O 5.479324 0.608808 0.009075
Zn 4.626037 2.290718 7.179789
O 4.626037 2.290718 4.553640
Zn 5.479324 0.608808 7.324776
O 5.479324 0.608808 4.698627
Zn 4.626037 2.290718 11.869341
O 4.626037 2.290718 9.243192
Zn 5.479324 0.608808 12.014328
O 5.479324 0.608808 9.388179
Zn 2.297424 5.190243 0.299997
O 2.297424 5.190243 -2.326152
Zn 3.150710 3.508333 0.444984
O 3.150710 3.508333 -2.181165
Zn 2.297424 5.190243 4.989549
O 2.297424 5.190243 2.363400
Zn 3.150710 3.508333 5.134536
O 3.150710 3.508333 2.508387
Zn 2.297424 5.190243 9.679101
O 2.297424 5.190243 7.052952
Zn 3.150710 3.508333 9.824088
O 3.150710 3.508333 7.197939
Zn -0.031190 8.089768 -1.890243
O -0.031190 8.089768 -4.516392
Zn 0.822096 6.407858 -1.745256
O 0.822096 6.407858 -4.371405
Zn -0.031190 8.089768 2.799309
O -0.031190 8.089768 0.173160
Zn 0.822096 6.407858 2.944296
O 0.822096 6.407858 0.318147
Zn -0.031190 8.089768 7.488861
O -0.031190 8.089768 4.862712
Zn 0.822096 6.407858 7.633848
O 0.822096 6.407858 5.007699
