108
A
Zn -1.197361 2.319989 3.951046
O -1.197361 2.319989 1.007129
Zn -0.765785 0.535206 1.471958
O -0.765785 0.535206 3.486217
Zn -1.197361 2.319989 8.909221
O -1.197361 2.319989 5.965304
Zn -0.765785 0.535206 6.430133
O -0.765785 0.535206 8.444392
Zn -1.197361 2.319989 13.867396
O -1.197361 2.319989 10.923479
Zn -0.765785 0.535206 11.388308
O -0.765785 0.535206 13.402567
Zn -3.160507 5.175185 3.951046
O -3.160507 5.175185 1.007129
Zn -2.728931 3.390402 1.471958
O -2.728931 3.390402 3.486217
Zn -3.160507 5.175185 8.909221
O -3.160507 5.175185 5.965304
Zn -2.728931 3.390402 6.430133
O -2.728931 3.390402 8.444392
Zn -3.160507 5.175185 13.867396
O -3.160507 5.175185 10.923479
Zn -2.728931 3.390402 11.388308
O -2.728931 3.390402 13.402567
Zn -5.123653 8.030380 3.951046
O -5.123653 8.030380 1.007129
Zn -4.692077 6.245598 1.471958
O -4.692077 6.245598 3.486217
Zn -5.123653 8.030380 8.909221
O -5.123653 8.030380 5.965304
Zn -4.692077 6.245598 6.430133
O -4.692077 6.245598 8.444392
Zn -5.123653 8.030380 13.867396
O -5.123653 8.030380 10.923479
Zn -4.692077 6.245598 11.388308
O -4.692077 6.245598 13.402567
Zn 1.984347 2.319989 3.951046
O 1.984347 2.319989 1.007129
Zn 2.415924 0.535206 1.471958
O 2.415924 0.535206 3.486217
Zn 1.984347 2.319989 8.909221
O 1.984347 2.319989 5.965304
Zn 2.415924 0.535206 6.430133
O 2.415924 0.535206 8.444392
Zn 1.984347 2.319989 13.867396
O 1.984347 2.319989 10.923479
Zn 2.415924 0.535206 11.388308
O 2.415924 0.535206 13.402567
Zn 0.021201 5.175185 3.951046
O 0.021201 5.175185 1.007129
Zn 0.452778 3.390402 1.471958
O 0.452778 3.390402 3.486217
Zn 0.021201 5.175185 8.909221
O 0.021201 5.175185 5.965304
Zn 0.452778 3.390402 6.430133
O 0.452778 3.390402 8.444392
Zn 0.021201 5.175185 13.867396
O 0.021201 5.175185 10.923479
Zn 0.452778 3.390402 11.388308
O 0.452778 3.390402 13.402567
Zn -1.941945 8.030380 3.951046
O -1.941945 8.030380 1.007129
Zn -1.510368 6.245598 1.471958
O -1.510368 6.245598 3.486217
Zn -1.941945 8.030380 8.909221
O -1.941945 8.030380 5.965304
Zn -1.510368 6.245598 6.430133
O -1.510368 6.245598 8.444392
Zn -1.941945 8.030380 13.867396
O -1.941945 8.030380 10.923479
Zn -1.510368 6.245598 11.388308
O -1.510368 6.245598 13.402567
Zn 5.166056 2.319989 3.951046
O 5.166056 2.319989 1.007129
Zn 5.597632 0.535206 1.471958
O 5.597632 0.535206 3.486217
Zn 5.166056 2.319989 8.909221
O 5.166056 2.319989 5.965304
Zn 5.597632 0.535206 6.430133
O 5.597632 0.535206 8.444392
Zn 5.166056 2.319989 13.867396
O 5.166056 2.319989 10.923479
Zn 5.597632 0.535206 11.388308
O 5.597632 0.535206 13.402567
Zn 3.202910 5.175185 3.951046
O 3.202910 5.175185 1.007129
Zn 3.634486 3.390402 1.471958
O 3.634486 3.390402 3.486217
Zn 3.202910 5.175185 8.909221
O 3.202910 5.175185 5.965304
Zn 3.634486 3.390402 6.430133
O 3.634486 3.390402 8.444392
Zn 3.202910 5.175185 13.867396
O 3.202910 5.175185 10.923479
Zn 3.634486 3.390402 11.388308
O 3.634486 3.390402 13.402567
Zn 1.239764 8.030380 3.951046
O 1.239764 8.030380 1.007129
Zn 1.671340 6.245598 1.471958
O 1.671340 6.245598 3.486217
Zn 1.239764 8.030380 8.909221
O 1.239764 8.030380 5.965304
Zn 1.671340 6.245598 6.430133
O 1.671340 6.245598 8.444392
Zn 1.239764 8.030380 13.867396
O 1.239764 8.030380 10.923479
Zn 1.671340 6.245598 11.388308
O 1.671340 6.245598 13.402567
