108
A
Zn -1.345822 2.309381 3.445368
O -1.345822 2.309381 0.621257
Zn -0.752682 0.562233 2.763228
O -0.752682 0.562233 -0.060883
Zn -1.345822 2.309381 8.304053
O -1.345822 2.309381 5.479942
Zn -0.752682 0.562233 7.621913
O -0.752682 0.562233 4.797802
Zn -1.345822 2.309381 13.162738
O -1.345822 2.309381 10.338627
Zn -0.752682 0.562233 12.480598
O -0.752682 0.562233 9.656487
Zn -3.444327 5.180995 1.971168
O -3.444327 5.180995 -0.852943
Zn -2.851186 3.433847 1.289028
O -2.851186 3.433847 -1.535083
Zn -3.444327 5.180995 6.829853
O -3.444327 5.180995 4.005742
Zn -2.851186 3.433847 6.147713
O -2.851186 3.433847 3.323602
Zn -3.444327 5.180995 11.688538
O -3.444327 5.180995 8.864427
Zn -2.851186 3.433847 11.006398
O -2.851186 3.433847 8.182287
Zn -5.542831 8.052609 0.496968
O -5.542831 8.052609 -2.327143
Zn -4.949691 6.305461 -0.185172
O -4.949691 6.305461 -3.009283
Zn -5.542831 8.052609 5.355653
O -5.542831 8.052609 2.531542
Zn -4.949691 6.305461 4.673513
O -4.949691 6.305461 1.849402
Zn -5.542831 8.052609 10.214338
O -5.542831 8.052609 7.390227
Zn -4.949691 6.305461 9.532198
O -4.949691 6.305461 6.708087
Zn 1.808769 2.309381 3.445368
O 1.808769 2.309381 0.621257
Zn 2.401910 0.562233 2.763228
O 2.401910 0.562233 -0.060883
Zn 1.808769 2.309381 8.304053
O 1.808769 2.309381 5.479942
Zn 2.401910 0.562233 7.621913
O 2.401910 0.562233 4.797802
Zn 1.808769 2.309381 13.162738
O 1.808769 2.309381 10.338627
Zn 2.401910 0.562233 12.480598
O 2.401910 0.562233 9.656487
Zn -0.289735 5.180995 1.971168
O -0.289735 5.180995 -0.852943
Zn 0.303406 3.433847 1.289028
O 0.303406 3.433847 -1.535083
Zn -0.289735 5.180995 6.829853
O -0.289735 5.180995 4.005742
Zn 0.303406 3.433847 6.147713
O 0.303406 3.433847 3.323602
Zn -0.289735 5.180995 11.688538
O -0.289735 5.180995 8.864427
Zn 0.303406 3.433847 11.006398
O 0.303406 3.433847 8.182287
Zn -2.388239 8.052609 0.496968
O -2.388239 8.052609 -2.327143
Zn -1.795099 6.305461 -0.185172
O -1.795099 6.305461 -3.009283
Zn -2.388239 8.052609 5.355653
O -2.388239 8.052609 2.531542
Zn -1.795099 6.305461 4.673513
O -1.795099 6.305461 1.849402
Zn -2.388239 8.052609 10.214338
O -2.388239 8.052609 7.390227
Zn -1.795099 6.305461 9.532198
O -1.795099 6.305461 6.708087
Zn 4.963361 2.309381 3.445368
O 4.963361 2.309381 0.621257
Zn 5.556502 0.562233 2.763228
O 5.556502 0.562233 -0.060883
Zn 4.963361 2.309381 8.304053
O 4.963361 2.309381 5.479942
Zn 5.556502 0.562233 7.621913
O 5.556502 0.562233 4.797802
Zn 4.963361 2.309381 13.162738
O 4.963361 2.309381 10.338627
Zn 5.556502 0.562233 12.480598
O 5.556502 0.562233 9.656487
Zn 2.864857 5.180995 1.971168
O 2.864857 5.180995 -0.852943
Zn 3.457997 3.433847 1.289028
O 3.457997 3.433847 -1.535083
Zn 2.864857 5.180995 6.829853
O 2.864857 5.180995 4.005742
Zn 3.457997 3.433847 6.147713
O 3.457997 3.433847 3.323602
Zn 2.864857 5.180995 11.688538
O 2.864857 5.180995 8.864427
Zn 3.457997 3.433847 11.006398
O 3.457997 3.433847 8.182287
Zn 0.766353 8.052609 0.496968
O 0.766353 8.052609 -2.327143
Zn 1.359493 6.305461 -0.185172
O 1.359493 6.305461 -3.009283
Zn 0.766353 8.052609 5.355653
O 0.766353 8.052609 2.531542
Zn 1.359493 6.305461 4.673513
O 1.359493 6.305461 1.849402
Zn 0.766353 8.052609 10.214338
O 0.766353 8.052609 7.390227
Zn 1.359493 6.305461 9.532198
O 1.359493 6.305461 6.708087
