108
A
Zn -1.152206 2.323118 4.201587
O -1.152206 2.323118 1.221244
Zn -0.770332 0.527152 2.840138
O -0.770332 0.527152 -0.140205
Zn -1.152206 2.323118 9.189609
O -1.152206 2.323118 6.209266
Zn -0.770332 0.527152 7.828160
O -0.770332 0.527152 4.847817
Zn -1.152206 2.323118 14.177631
O -1.152206 2.323118 11.197288
Zn -0.770332 0.527152 12.816182
O -0.770332 0.527152 9.835839
Zn -3.074745 5.173388 3.274947
O -3.074745 5.173388 0.294604
Zn -2.692871 3.377422 1.913498
O -2.692871 3.377422 -1.066845
Zn -3.074745 5.173388 8.262969
O -3.074745 5.173388 5.282626
Zn -2.692871 3.377422 6.901520
O -2.692871 3.377422 3.921177
Zn -3.074745 5.173388 13.250991
O -3.074745 5.173388 10.270648
Zn -2.692871 3.377422 11.889542
O -2.692871 3.377422 8.909199
Zn -4.997283 8.023658 2.348307
O -4.997283 8.023658 -0.632036
Zn -4.615409 6.227692 0.986858
O -4.615409 6.227692 -1.993485
Zn -4.997283 8.023658 7.336329
O -4.997283 8.023658 4.355986
Zn -4.615409 6.227692 5.974880
O -4.615409 6.227692 2.994537
Zn -4.997283 8.023658 12.324351
O -4.997283 8.023658 9.344008
Zn -4.615409 6.227692 10.962902
O -4.615409 6.227692 7.982559
Zn 2.037637 2.323118 4.201587
O 2.037637 2.323118 1.221244
Zn 2.419511 0.527152 2.840138
O 2.419511 0.527152 -0.140205
Zn 2.037637 2.323118 9.189609
O 2.037637 2.323118 6.209266
Zn 2.419511 0.527152 7.828160
O 2.419511 0.527152 4.847817
Zn 2.037637 2.323118 14.177631
O 2.037637 2.323118 11.197288
Zn 2.419511 0.527152 12.816182
O 2.419511 0.527152 9.835839
Zn 0.115099 5.173388 3.274947
O 0.115099 5.173388 0.294604
Zn 0.496973 3.377422 1.913498
O 0.496973 3.377422 -1.066845
Zn 0.115099 5.173388 8.262969
O 0.115099 5.173388 5.282626
Zn 0.496973 3.377422 6.901520
O 0.496973 3.377422 3.921177
Zn 0.115099 5.173388 13.250991
O 0.115099 5.173388 10.270648
Zn 0.496973 3.377422 11.889542
O 0.496973 3.377422 8.909199
Zn -1.807440 8.023658 2.348307
O -1.807440 8.023658 -0.632036
Zn -1.425566 6.227692 0.986858
O -1.425566 6.227692 -1.993485
Zn -1.807440 8.023658 7.336329
O -1.807440 8.023658 4.355986
Zn -1.425566 6.227692 5.974880
O -1.425566 6.227692 2.994537
Zn -1.807440 8.023658 12.324351
O -1.807440 8.023658 9.344008
Zn -1.425566 6.227692 10.962902
O -1.425566 6.227692 7.982559
Zn 5.227481 2.323118 4.201587
O 5.227481 2.323118 1.221244
Zn 5.609355 0.527152 2.840138
O 5.609355 0.527152 -0.140205
Zn 5.227481 2.323118 9.189609
O 5.227481 2.323118 6.209266
Zn 5.609355 0.527152 7.828160
O 5.609355 0.527152 4.847817
Zn 5.227481 2.323118 14.177631
O 5.227481 2.323118 11.197288
Zn 5.609355 0.527152 12.816182
O 5.609355 0.527152 9.835839
Zn 3.304942 5.173388 3.274947
O 3.304942 5.173388 0.294604
Zn 3.686816 3.377422 1.913498
O 3.686816 3.377422 -1.066845
Zn 3.304942 5.173388 8.262969
O 3.304942 5.173388 5.282626
Zn 3.686816 3.377422 6.901520
O 3.686816 3.377422 3.921177
Zn 3.304942 5.173388 13.250991
O 3.304942 5.173388 10.270648
Zn 3.686816 3.377422 11.889542
O 3.686816 3.377422 8.909199
Zn 1.382404 8.023658 2.348307
O 1.382404 8.023658 -0.632036
Zn 1.764278 6.227692 0.986858
O 1.764278 6.227692 -1.993485
Zn 1.382404 8.023658 7.336329
O 1.382404 8.023658 4.355986
Zn 1.764278 6.227692 5.974880
O 1.764278 6.227692 2.994537
Zn 1.382404 8.023658 12.324351
O 1.382404 8.023658 9.344008
Zn 1.764278 6.227692 10.962902
O 1.764278 6.227692 7.982559
