108
A
Zn -1.345822 2.309381 3.841398
O -1.345822 2.309381 1.017287
Zn -0.752682 0.562233 1.412055
O -0.752682 0.562233 3.446630
Zn -1.345822 2.309381 8.700083
O -1.345822 2.309381 5.875972
Zn -0.752682 0.562233 6.270740
O -0.752682 0.562233 8.305315
Zn -1.345822 2.309381 13.558768
O -1.345822 2.309381 10.734657
Zn -0.752682 0.562233 11.129425
O -0.752682 0.562233 13.164000
Zn -3.444327 5.180995 3.841398
O -3.444327 5.180995 1.017287
Zn -2.851186 3.433847 1.412055
O -2.851186 3.433847 3.446630
Zn -3.444327 5.180995 8.700083
O -3.444327 5.180995 5.875972
Zn -2.851186 3.433847 6.270740
O -2.851186 3.433847 8.305315
Zn -3.444327 5.180995 13.558768
O -3.444327 5.180995 10.734657
Zn -2.851186 3.433847 11.129425
O -2.851186 3.433847 13.164000
Zn -5.542831 8.052609 3.841398
O -5.542831 8.052609 1.017287
Zn -4.949691 6.305461 1.412055
O -4.949691 6.305461 3.446630
Zn -5.542831 8.052609 8.700083
O -5.542831 8.052609 5.875972
Zn -4.949691 6.305461 6.270740
O -4.949691 6.305461 8.305315
Zn -5.542831 8.052609 13.558768
O -5.542831 8.052609 10.734657
Zn -4.949691 6.305461 11.129425
O -4.949691 6.305461 13.164000
Zn 1.808769 2.309381 3.841398
O 1.808769 2.309381 1.017287
Zn 2.401910 0.562233 1.412055
O 2.401910 0.562233 3.446630
Zn 1.808769 2.309381 8.700083
O 1.808769 2.309381 5.875972
Zn 2.401910 0.562233 6.270740
O 2.401910 0.562233 8.305315
Zn 1.808769 2.309381 13.558768
O 1.808769 2.309381 10.734657
Zn 2.401910 0.562233 11.129425
O 2.401910 0.562233 13.164000
Zn -0.289735 5.180995 3.841398
O -0.289735 5.180995 1.017287
Zn 0.303406 3.433847 1.412055
O 0.303406 3.433847 3.446630
Zn -0.289735 5.180995 8.700083
O -0.289735 5.180995 5.875972
Zn 0.303406 3.433847 6.270740
O 0.303406 3.433847 8.305315
Zn -0.289735 5.180995 13.558768
O -0.289735 5.180995 10.734657
Zn 0.303406 3.433847 11.129425
O 0.303406 3.433847 13.164000
Zn -2.388239 8.052609 3.841398
O -2.388239 8.052609 1.017287
Zn -1.795099 6.305461 1.412055
O -1.795099 6.305461 3.446630
Zn -2.388239 8.052609 8.700083
O -2.388239 8.052609 5.875972
Zn -1.795099 6.305461 6.270740
O -1.795099 6.305461 8.305315
Zn -2.388239 8.052609 13.558768
O -2.388239 8.052609 10.734657
Zn -1.795099 6.305461 11.129425
O -1.795099 6.305461 13.164000
Zn 4.963361 2.309381 3.841398
O 4.963361 2.309381 1.017287
Zn 5.556502 0.562233 1.412055
O 5.556502 0.562233 3.446630
Zn 4.963361 2.309381 8.700083
O 4.963361 2.309381 5.875972
Zn 5.556502 0.562233 6.270740
O 5.556502 0.562233 8.305315
Zn 4.963361 2.309381 13.558768
O 4.963361 2.309381 10.734657
Zn 5.556502 0.562233 11.129425
O 5.556502 0.562233 13.164000
Zn 2.864857 5.180995 3.841398
O 2.864857 5.180995 1.017287
Zn 3.457997 3.433847 1.412055
O 3.457997 3.433847 3.446630
Zn 2.864857 5.180995 8.700083
O 2.864857 5.180995 5.875972
Zn 3.457997 3.433847 6.270740
O 3.457997 3.433847 8.305315
Zn 2.864857 5.180995 13.558768
O 2.864857 5.180995 10.734657
Zn 3.457997 3.433847 11.129425
O 3.457997 3.433847 13.164000
Zn 0.766353 8.052609 3.841398
O 0.766353 8.052609 1.017287
Zn 1.359493 6.305461 1.412055
O 1.359493 6.305461 3.446630
Zn 0.766353 8.052609 8.700083
O 0.766353 8.052609 5.875972
Zn 1.359493 6.305461 6.270740
O 1.359493 6.305461 8.305315
Zn 0.766353 8.052609 13.558768
O 0.766353 8.052609 10.734657
Zn 1.359493 6.305461 11.129425
O 1.359493 6.305461 13.164000
