108
A
Zn -1.389744 2.306145 3.274034
O -1.389744 2.306145 0.485380
Zn -0.749368 0.570395 2.742898
O -0.749368 0.570395 -0.045756
Zn -1.389744 2.306145 8.102872
O -1.389744 2.306145 5.314218
Zn -0.749368 0.570395 7.571736
O -0.749368 0.570395 4.783082
Zn -1.389744 2.306145 12.931710
O -1.389744 2.306145 10.143056
Zn -0.749368 0.570395 12.400574
O -0.749368 0.570395 9.611920
Zn -3.528856 5.182684 1.673474
O -3.528856 5.182684 -1.115180
Zn -2.888479 3.446934 1.142338
O -2.888479 3.446934 -1.646316
Zn -3.528856 5.182684 6.502312
O -3.528856 5.182684 3.713658
Zn -2.888479 3.446934 5.971176
O -2.888479 3.446934 3.182522
Zn -3.528856 5.182684 11.331150
O -3.528856 5.182684 8.542496
Zn -2.888479 3.446934 10.800014
O -2.888479 3.446934 8.011360
Zn -5.667968 8.059224 0.072914
O -5.667968 8.059224 -2.715740
Zn -5.027591 6.323474 -0.458222
O -5.027591 6.323474 -3.246876
Zn -5.667968 8.059224 4.901752
O -5.667968 8.059224 2.113098
Zn -5.027591 6.323474 4.370616
O -5.027591 6.323474 1.581962
Zn -5.667968 8.059224 9.730590
O -5.667968 8.059224 6.941936
Zn -5.027591 6.323474 9.199454
O -5.027591 6.323474 6.410800
Zn 1.756713 2.306145 3.274034
O 1.756713 2.306145 0.485380
Zn 2.397089 0.570395 2.742898
O 2.397089 0.570395 -0.045756
Zn 1.756713 2.306145 8.102872
O 1.756713 2.306145 5.314218
Zn 2.397089 0.570395 7.571736
O 2.397089 0.570395 4.783082
Zn 1.756713 2.306145 12.931710
O 1.756713 2.306145 10.143056
Zn 2.397089 0.570395 12.400574
O 2.397089 0.570395 9.611920
Zn -0.382399 5.182684 1.673474
O -0.382399 5.182684 -1.115180
Zn 0.257977 3.446934 1.142338
O 0.257977 3.446934 -1.646316
Zn -0.382399 5.182684 6.502312
O -0.382399 5.182684 3.713658
Zn 0.257977 3.446934 5.971176
O 0.257977 3.446934 3.182522
Zn -0.382399 5.182684 11.331150
O -0.382399 5.182684 8.542496
Zn 0.257977 3.446934 10.800014
O 0.257977 3.446934 8.011360
Zn -2.521511 8.059224 0.072914
O -2.521511 8.059224 -2.715740
Zn -1.881134 6.323474 -0.458222
O -1.881134 6.323474 -3.246876
Zn -2.521511 8.059224 4.901752
O -2.521511 8.059224 2.113098
Zn -1.881134 6.323474 4.370616
O -1.881134 6.323474 1.581962
Zn -2.521511 8.059224 9.730590
O -2.521511 8.059224 6.941936
Zn -1.881134 6.323474 9.199454
O -1.881134 6.323474 6.410800
Zn 4.903169 2.306145 3.274034
O 4.903169 2.306145 0.485380
Zn 5.543546 0.570395 2.742898
O 5.543546 0.570395 -0.045756
Zn 4.903169 2.306145 8.102872
O 4.903169 2.306145 5.314218
Zn 5.543546 0.570395 7.571736
O 5.543546 0.570395 4.783082
Zn 4.903169 2.306145 12.931710
O 4.903169 2.306145 10.143056
Zn 5.543546 0.570395 12.400574
O 5.543546 0.570395 9.611920
Zn 2.764058 5.182684 1.673474
O 2.764058 5.182684 -1.115180
Zn 3.404434 3.446934 1.142338
O 3.404434 3.446934 -1.646316
Zn 2.764058 5.182684 6.502312
O 2.764058 5.182684 3.713658
Zn 3.404434 3.446934 5.971176
O 3.404434 3.446934 3.182522
Zn 2.764058 5.182684 11.331150
O 2.764058 5.182684 8.542496
Zn 3.404434 3.446934 10.800014
O 3.404434 3.446934 8.011360
Zn 0.624946 8.059224 0.072914
O 0.624946 8.059224 -2.715740
Zn 1.265322 6.323474 -0.458222
O 1.265322 6.323474 -3.246876
Zn 0.624946 8.059224 4.901752
O 0.624946 8.059224 2.113098
Zn 1.265322 6.323474 4.370616
O 1.265322 6.323474 1.581962
Zn 0.624946 8.059224 9.730590
O 0.624946 8.059224 6.941936
Zn 1.265322 6.323474 9.199454
O 1.265322 6.323474 6.410800
