108
A
Zn -1.091557 2.327252 4.028539
O -1.091557 2.327252 0.999279
Zn -0.776838 0.516451 1.514630
O -0.776838 0.516451 3.513188
Zn -1.091557 2.327252 9.056357
O -1.091557 2.327252 6.027097
Zn -0.776838 0.516451 6.542448
O -0.776838 0.516451 8.541006
Zn -1.091557 2.327252 14.084175
O -1.091557 2.327252 11.054915
Zn -0.776838 0.516451 11.570266
O -0.776838 0.516451 13.568824
Zn -2.959952 5.170955 4.028539
O -2.959952 5.170955 0.999279
Zn -2.645233 3.360153 1.514630
O -2.645233 3.360153 3.513188
Zn -2.959952 5.170955 9.056357
O -2.959952 5.170955 6.027097
Zn -2.645233 3.360153 6.542448
O -2.645233 3.360153 8.541006
Zn -2.959952 5.170955 14.084175
O -2.959952 5.170955 11.054915
Zn -2.645233 3.360153 11.570266
O -2.645233 3.360153 13.568824
Zn -4.828347 8.014658 4.028539
O -4.828347 8.014658 0.999279
Zn -4.513628 6.203856 1.514630
O -4.513628 6.203856 3.513188
Zn -4.828347 8.014658 9.056357
O -4.828347 8.014658 6.027097
Zn -4.513628 6.203856 6.542448
O -4.513628 6.203856 8.541006
Zn -4.828347 8.014658 14.084175
O -4.828347 8.014658 11.054915
Zn -4.513628 6.203856 11.570266
O -4.513628 6.203856 13.568824
Zn 2.109133 2.327252 4.028539
O 2.109133 2.327252 0.999279
Zn 2.423852 0.516451 1.514630
O 2.423852 0.516451 3.513188
Zn 2.109133 2.327252 9.056357
O 2.109133 2.327252 6.027097
Zn 2.423852 0.516451 6.542448
O 2.423852 0.516451 8.541006
Zn 2.109133 2.327252 14.084175
O 2.109133 2.327252 11.054915
Zn 2.423852 0.516451 11.570266
O 2.423852 0.516451 13.568824
Zn 0.240738 5.170955 4.028539
O 0.240738 5.170955 0.999279
Zn 0.555457 3.360153 1.514630
O 0.555457 3.360153 3.513188
Zn 0.240738 5.170955 9.056357
O 0.240738 5.170955 6.027097
Zn 0.555457 3.360153 6.542448
O 0.555457 3.360153 8.541006
Zn 0.240738 5.170955 14.084175
O 0.240738 5.170955 11.054915
Zn 0.555457 3.360153 11.570266
O 0.555457 3.360153 13.568824
Zn -1.627657 8.014658 4.028539
O -1.627657 8.014658 0.999279
Zn -1.312938 6.203856 1.514630
O -1.312938 6.203856 3.513188
Zn -1.627657 8.014658 9.056357
O -1.627657 8.014658 6.027097
Zn -1.312938 6.203856 6.542448
O -1.312938 6.203856 8.541006
Zn -1.627657 8.014658 14.084175
O -1.627657 8.014658 11.054915
Zn -1.312938 6.203856 11.570266
O -1.312938 6.203856 13.568824
Zn 5.309823 2.327252 4.028539
O 5.309823 2.327252 0.999279
Zn 5.624542 0.516451 1.514630
O 5.624542 0.516451 3.513188
Zn 5.309823 2.327252 9.056357
O 5.309823 2.327252 6.027097
Zn 5.624542 0.516451 6.542448
O 5.624542 0.516451 8.541006
Zn 5.309823 2.327252 14.084175
O 5.309823 2.327252 11.054915
Zn 5.624542 0.516451 11.570266
O 5.624542 0.516451 13.568824
Zn 3.441428 5.170955 4.028539
O 3.441428 5.170955 0.999279
Zn 3.756147 3.360153 1.514630
O 3.756147 3.360153 3.513188
Zn 3.441428 5.170955 9.056357
O 3.441428 5.170955 6.027097
Zn 3.756147 3.360153 6.542448
O 3.756147 3.360153 8.541006
Zn 3.441428 5.170955 14.084175
O 3.441428 5.170955 11.054915
Zn 3.756147 3.360153 11.570266
O 3.756147 3.360153 13.568824
Zn 1.573033 8.014658 4.028539
O 1.573033 8.014658 0.999279
Zn 1.887752 6.203856 1.514630
O 1.887752 6.203856 3.513188
Zn 1.573033 8.014658 9.056357
O 1.573033 8.014658 6.027097
Zn 1.887752 6.203856 6.542448
O 1.887752 6.203856 8.541006
Zn 1.573033 8.014658 14.084175
O 1.573033 8.014658 11.054915
Zn 1.887752 6.203856 11.570266
O 1.887752 6.203856 13.568824
