108
A
Zn -1.316383 2.311524 3.560252
O -1.316383 2.311524 0.712380
Zn -0.755050 0.556806 2.776243
O -0.755050 0.556806 -0.071629
Zn -1.316383 2.311524 8.438835
O -1.316383 2.311524 5.590963
Zn -0.755050 0.556806 7.654826
O -0.755050 0.556806 4.806954
Zn -1.316383 2.311524 13.317418
O -1.316383 2.311524 10.469546
Zn -0.755050 0.556806 12.533409
O -0.755050 0.556806 9.685537
Zn -3.387816 5.179855 2.170292
O -3.387816 5.179855 -0.677580
Zn -2.826482 3.425136 1.386283
O -2.826482 3.425136 -1.461589
Zn -3.387816 5.179855 7.048875
O -3.387816 5.179855 4.201003
Zn -2.826482 3.425136 6.264866
O -2.826482 3.425136 3.416994
Zn -3.387816 5.179855 11.927458
O -3.387816 5.179855 9.079586
Zn -2.826482 3.425136 11.143449
O -2.826482 3.425136 8.295577
Zn -5.459248 8.048185 0.780332
O -5.459248 8.048185 -2.067540
Zn -4.897915 6.293467 -0.003677
O -4.897915 6.293467 -2.851549
Zn -5.459248 8.048185 5.658915
O -5.459248 8.048185 2.811043
Zn -4.897915 6.293467 4.874906
O -4.897915 6.293467 2.027034
Zn -5.459248 8.048185 10.537498
O -5.459248 8.048185 7.689626
Zn -4.897915 6.293467 9.753489
O -4.897915 6.293467 6.905617
Zn 1.843632 2.311524 3.560252
O 1.843632 2.311524 0.712380
Zn 2.404966 0.556806 2.776243
O 2.404966 0.556806 -0.071629
Zn 1.843632 2.311524 8.438835
O 1.843632 2.311524 5.590963
Zn 2.404966 0.556806 7.654826
O 2.404966 0.556806 4.806954
Zn 1.843632 2.311524 13.317418
O 1.843632 2.311524 10.469546
Zn 2.404966 0.556806 12.533409
O 2.404966 0.556806 9.685537
Zn -0.227801 5.179855 2.170292
O -0.227801 5.179855 -0.677580
Zn 0.333533 3.425136 1.386283
O 0.333533 3.425136 -1.461589
Zn -0.227801 5.179855 7.048875
O -0.227801 5.179855 4.201003
Zn 0.333533 3.425136 6.264866
O 0.333533 3.425136 3.416994
Zn -0.227801 5.179855 11.927458
O -0.227801 5.179855 9.079586
Zn 0.333533 3.425136 11.143449
O 0.333533 3.425136 8.295577
Zn -2.299233 8.048185 0.780332
O -2.299233 8.048185 -2.067540
Zn -1.737900 6.293467 -0.003677
O -1.737900 6.293467 -2.851549
Zn -2.299233 8.048185 5.658915
O -2.299233 8.048185 2.811043
Zn -1.737900 6.293467 4.874906
O -1.737900 6.293467 2.027034
Zn -2.299233 8.048185 10.537498
O -2.299233 8.048185 7.689626
Zn -1.737900 6.293467 9.753489
O -1.737900 6.293467 6.905617
Zn 5.003647 2.311524 3.560252
O 5.003647 2.311524 0.712380
Zn 5.564981 0.556806 2.776243
O 5.564981 0.556806 -0.071629
Zn 5.003647 2.311524 8.438835
O 5.003647 2.311524 5.590963
Zn 5.564981 0.556806 7.654826
O 5.564981 0.556806 4.806954
Zn 5.003647 2.311524 13.317418
O 5.003647 2.311524 10.469546
Zn 5.564981 0.556806 12.533409
O 5.564981 0.556806 9.685537
Zn 2.932215 5.179855 2.170292
O 2.932215 5.179855 -0.677580
Zn 3.493548 3.425136 1.386283
O 3.493548 3.425136 -1.461589
Zn 2.932215 5.179855 7.048875
O 2.932215 5.179855 4.201003
Zn 3.493548 3.425136 6.264866
O 3.493548 3.425136 3.416994
Zn 2.932215 5.179855 11.927458
O 2.932215 5.179855 9.079586
Zn 3.493548 3.425136 11.143449
O 3.493548 3.425136 8.295577
Zn 0.860782 8.048185 0.780332
O 0.860782 8.048185 -2.067540
Zn 1.422115 6.293467 -0.003677
O 1.422115 6.293467 -2.851549
Zn 0.860782 8.048185 5.658915
O 0.860782 8.048185 2.811043
Zn 1.422115 6.293467 4.874906
O 1.422115 6.293467 2.027034
Zn 0.860782 8.048185 10.537498
O 0.860782 8.048185 7.689626
Zn 1.422115 6.293467 9.753489
O 1.422115 6.293467 6.905617
